<?xml version="1.0" encoding="UTF-8"?>

<!-- generated on Mon Jun  9 20:25:27 2025 by Eclipse SUMO netconvert Version 1.8.0
<configuration xmlns:xsi="http://www.w3.org/2001/XMLSchema-instance" xsi:noNamespaceSchemaLocation="http://sumo.dlr.de/xsd/netconvertConfiguration.xsd">

    <input>
        <osm-files value="map.osm"/>
    </input>

    <output>
        <output-file value="cenarioC.net.xml"/>
    </output>

    <projection>
        <proj.utm value="true"/>
    </projection>

    <processing>
        <geometry.remove value="true"/>
    </processing>

    <tls_building>
        <tls.discard-simple value="true"/>
    </tls_building>

    <ramp_guessing>
        <ramps.guess value="true"/>
    </ramp_guessing>

    <report>
        <aggregate-warnings value="5"/>
    </report>

</configuration>
-->

<net version="1.6" junctionCornerDetail="5" limitTurnSpeed="5.50" xmlns:xsi="http://www.w3.org/2001/XMLSchema-instance" xsi:noNamespaceSchemaLocation="http://sumo.dlr.de/xsd/net_file.xsd">

    <location netOffset="-328824.74,2610376.88" convBoundary="0.00,0.00,5536.72,4813.71" origBoundary="-46.691913,-23.595422,-46.623334,-23.551402" projParameter="+proj=utm +zone=23 +ellps=WGS84 +datum=WGS84 +units=m +no_defs"/>

    <type id="highway.bridleway" priority="1" numLanes="1" speed="2.78" allow="pedestrian" oneway="1" width="2.00"/>
    <type id="highway.bus_guideway" priority="1" numLanes="1" speed="27.78" allow="bus" oneway="1"/>
    <type id="highway.cycleway" priority="1" numLanes="1" speed="8.33" allow="bicycle" oneway="0" width="1.00"/>
    <type id="highway.footway" priority="1" numLanes="1" speed="2.78" allow="pedestrian" oneway="1" width="2.00"/>
    <type id="highway.ford" priority="1" numLanes="1" speed="2.78" allow="army" oneway="0"/>
    <type id="highway.living_street" priority="2" numLanes="1" speed="2.78" disallow="tram rail_urban rail rail_electric rail_fast ship" oneway="0"/>
    <type id="highway.motorway" priority="14" numLanes="2" speed="39.44" allow="private emergency authority army vip passenger hov taxi bus coach delivery truck trailer motorcycle evehicle custom1 custom2" oneway="1"/>
    <type id="highway.motorway_link" priority="9" numLanes="1" speed="22.22" allow="private emergency authority army vip passenger hov taxi bus coach delivery truck trailer motorcycle evehicle custom1 custom2" oneway="1"/>
    <type id="highway.path" priority="1" numLanes="1" speed="2.78" allow="pedestrian bicycle" oneway="0" width="2.00"/>
    <type id="highway.pedestrian" priority="1" numLanes="1" speed="2.78" allow="pedestrian" oneway="1" width="2.00"/>
    <type id="highway.primary" priority="12" numLanes="2" speed="27.78" disallow="tram rail_urban rail rail_electric rail_fast ship" oneway="0"/>
    <type id="highway.primary_link" priority="7" numLanes="1" speed="22.22" disallow="tram rail_urban rail rail_electric rail_fast ship" oneway="0"/>
    <type id="highway.raceway" priority="15" numLanes="2" speed="83.33" allow="vip" oneway="0"/>
    <type id="highway.residential" priority="3" numLanes="1" speed="13.89" disallow="tram rail_urban rail rail_electric rail_fast ship" oneway="0"/>
    <type id="highway.secondary" priority="11" numLanes="1" speed="27.78" disallow="tram rail_urban rail rail_electric rail_fast ship" oneway="0"/>
    <type id="highway.secondary_link" priority="6" numLanes="1" speed="22.22" disallow="tram rail_urban rail rail_electric rail_fast ship" oneway="0"/>
    <type id="highway.service" priority="1" numLanes="1" speed="5.56" allow="pedestrian delivery bicycle" oneway="0"/>
    <type id="highway.stairs" priority="1" numLanes="1" speed="1.39" allow="pedestrian" oneway="1" width="2.00"/>
    <type id="highway.step" priority="1" numLanes="1" speed="1.39" allow="pedestrian" oneway="1" width="2.00"/>
    <type id="highway.steps" priority="1" numLanes="1" speed="1.39" allow="pedestrian" oneway="1" width="2.00"/>
    <type id="highway.tertiary" priority="10" numLanes="1" speed="22.22" disallow="tram rail_urban rail rail_electric rail_fast ship" oneway="0"/>
    <type id="highway.tertiary_link" priority="5" numLanes="1" speed="22.22" disallow="tram rail_urban rail rail_electric rail_fast ship" oneway="0"/>
    <type id="highway.track" priority="1" numLanes="1" speed="5.56" allow="pedestrian motorcycle moped bicycle" oneway="0"/>
    <type id="highway.trunk" priority="13" numLanes="2" speed="27.78" disallow="pedestrian bicycle tram rail_urban rail rail_electric rail_fast ship" oneway="0"/>
    <type id="highway.trunk_link" priority="8" numLanes="1" speed="22.22" disallow="pedestrian bicycle tram rail_urban rail rail_electric rail_fast ship" oneway="0"/>
    <type id="highway.unclassified" priority="4" numLanes="1" speed="13.89" disallow="tram rail_urban rail rail_electric rail_fast ship" oneway="0"/>
    <type id="highway.unsurfaced" priority="1" numLanes="1" speed="8.33" disallow="tram rail_urban rail rail_electric rail_fast ship" oneway="0"/>
    <type id="railway.highspeed" priority="21" numLanes="1" speed="69.44" allow="rail_fast" oneway="1"/>
    <type id="railway.light_rail" priority="19" numLanes="1" speed="27.78" allow="rail_urban" oneway="1"/>
    <type id="railway.preserved" priority="16" numLanes="1" speed="27.78" allow="rail" oneway="1"/>
    <type id="railway.rail" priority="20" numLanes="1" speed="44.44" allow="rail" oneway="1"/>
    <type id="railway.subway" priority="18" numLanes="1" speed="27.78" allow="rail_urban" oneway="1"/>
    <type id="railway.tram" priority="17" numLanes="1" speed="13.89" allow="tram" oneway="1"/>

    <edge id=":10561374329_0" function="internal">
        <lane id=":10561374329_0_0" index="0" disallow="tram rail_urban rail rail_electric rail_fast ship" speed="11.11" length="3.97" shape="2166.27,3645.14 2169.04,3648.19"/>
        <lane id=":10561374329_0_1" index="1" disallow="tram rail_urban rail rail_electric rail_fast ship" speed="11.11" length="3.97" shape="2163.94,3647.33 2166.60,3650.27"/>
        <lane id=":10561374329_0_2" index="2" disallow="tram rail_urban rail rail_electric rail_fast ship" speed="11.11" length="3.97" shape="2161.60,3649.51 2164.16,3652.34"/>
    </edge>
    <edge id=":10561374331_0" function="internal">
        <lane id=":10561374331_0_0" index="0" allow="bus bicycle" speed="13.89" length="5.16" shape="2137.58,3683.01 2141.42,3679.40"/>
        <lane id=":10561374331_0_1" index="1" disallow="tram rail_urban rail rail_electric rail_fast ship" speed="13.89" length="5.16" shape="2139.81,3685.32 2143.59,3681.76"/>
        <lane id=":10561374331_0_2" index="2" disallow="tram rail_urban rail rail_electric rail_fast ship" speed="13.89" length="5.16" shape="2142.03,3687.62 2145.75,3684.11"/>
        <lane id=":10561374331_0_3" index="3" disallow="tram rail_urban rail rail_electric rail_fast ship" speed="13.89" length="5.16" shape="2144.25,3689.92 2147.92,3686.47"/>
    </edge>
    <edge id=":10561374354_0" function="internal">
        <lane id=":10561374354_0_0" index="0" disallow="tram rail_urban rail rail_electric rail_fast ship" speed="11.11" length="5.02" shape="1986.64,3475.26 1982.96,3478.67"/>
        <lane id=":10561374354_0_1" index="1" disallow="tram rail_urban rail rail_electric rail_fast ship" speed="11.11" length="5.02" shape="1984.46,3472.91 1980.78,3476.33"/>
    </edge>
    <edge id=":10865858794_0" function="internal">
        <lane id=":10865858794_0_0" index="0" disallow="tram rail_urban rail rail_electric rail_fast ship" speed="22.22" length="6.35" shape="2363.98,3711.12 2366.71,3716.85"/>
        <lane id=":10865858794_0_1" index="1" disallow="tram rail_urban rail rail_electric rail_fast ship" speed="22.22" length="6.35" shape="2361.09,3712.49 2363.82,3718.22"/>
    </edge>
    <edge id=":11281491623_0" function="internal">
        <lane id=":11281491623_0_0" index="0" disallow="tram rail_urban rail rail_electric rail_fast ship" speed="11.11" length="5.18" shape="2408.99,3507.46 2405.64,3503.39"/>
        <lane id=":11281491623_0_1" index="1" disallow="tram rail_urban rail rail_electric rail_fast ship" speed="11.11" length="5.18" shape="2411.44,3505.40 2408.13,3501.38"/>
        <lane id=":11281491623_0_2" index="2" disallow="tram rail_urban rail rail_electric rail_fast ship" speed="11.11" length="5.18" shape="2413.89,3503.35 2410.62,3499.36"/>
        <lane id=":11281491623_0_3" index="3" disallow="tram rail_urban rail rail_electric rail_fast ship" speed="11.11" length="5.18" shape="2416.35,3501.29 2413.10,3497.35"/>
    </edge>
    <edge id=":11281491626_0" function="internal">
        <lane id=":11281491626_0_0" index="0" allow="pedestrian delivery bicycle" speed="5.56" length="2.23" shape="2554.94,3519.71 2553.55,3517.96"/>
    </edge>
    <edge id=":11281491628_0" function="internal">
        <lane id=":11281491628_0_0" index="0" allow="pedestrian delivery bicycle" speed="5.56" length="2.70" shape="2508.36,3557.50 2510.09,3559.57"/>
    </edge>
    <edge id=":11281491635_0" function="internal">
        <lane id=":11281491635_0_0" index="0" disallow="tram rail_urban rail rail_electric rail_fast ship" speed="11.11" length="4.09" shape="2474.85,3586.06 2472.23,3582.93"/>
        <lane id=":11281491635_0_1" index="1" disallow="tram rail_urban rail rail_electric rail_fast ship" speed="11.11" length="4.09" shape="2477.31,3584.01 2474.68,3580.88"/>
        <lane id=":11281491635_0_2" index="2" disallow="tram rail_urban rail rail_electric rail_fast ship" speed="11.11" length="4.09" shape="2479.76,3581.95 2477.13,3578.82"/>
        <lane id=":11281491635_0_3" index="3" disallow="tram rail_urban rail rail_electric rail_fast ship" speed="11.11" length="4.09" shape="2482.21,3579.90 2479.59,3576.77"/>
    </edge>
    <edge id=":11281491638_0" function="internal">
        <lane id=":11281491638_0_0" index="0" disallow="tram rail_urban rail rail_electric rail_fast ship" speed="13.89" length="5.72" shape="2501.35,3581.80 2497.11,3585.64"/>
        <lane id=":11281491638_0_1" index="1" disallow="tram rail_urban rail rail_electric rail_fast ship" speed="13.89" length="5.72" shape="2499.20,3579.42 2494.96,3583.26"/>
        <lane id=":11281491638_0_2" index="2" disallow="tram rail_urban rail rail_electric rail_fast ship" speed="13.89" length="5.72" shape="2497.05,3577.05 2492.81,3580.89"/>
        <lane id=":11281491638_0_3" index="3" disallow="tram rail_urban rail rail_electric rail_fast ship" speed="13.89" length="5.72" shape="2494.91,3574.68 2490.66,3578.52"/>
    </edge>
    <edge id=":11285331416_0" function="internal">
        <lane id=":11285331416_0_0" index="0" disallow="tram rail_urban rail rail_electric rail_fast ship" speed="11.11" length="5.14" shape="1860.71,3766.51 1864.46,3763.00"/>
        <lane id=":11285331416_0_1" index="1" disallow="tram rail_urban rail rail_electric rail_fast ship" speed="11.11" length="5.14" shape="1862.89,3768.85 1866.64,3765.34"/>
        <lane id=":11285331416_0_2" index="2" disallow="tram rail_urban rail rail_electric rail_fast ship" speed="11.11" length="5.14" shape="1865.07,3771.19 1868.83,3767.68"/>
    </edge>
    <edge id=":11285331463_0" function="internal">
        <lane id=":11285331463_0_0" index="0" disallow="tram rail_urban rail rail_electric rail_fast ship" speed="11.11" length="5.02" shape="2118.67,3745.06 2122.19,3748.63"/>
    </edge>
    <edge id=":11285365784_0" function="internal">
        <lane id=":11285365784_0_0" index="0" disallow="tram rail_urban rail rail_electric rail_fast ship" speed="11.11" length="5.25" shape="2322.97,3664.82 2319.09,3661.28"/>
    </edge>
    <edge id=":11285365784_1" function="internal">
        <lane id=":11285365784_1_0" index="0" disallow="tram rail_urban rail rail_electric rail_fast ship" speed="3.65" length="2.34" shape="2322.97,3664.82 2322.62,3663.42 2322.86,3662.56"/>
    </edge>
    <edge id=":11285365784_4" function="internal">
        <lane id=":11285365784_4_0" index="0" disallow="tram rail_urban rail rail_electric rail_fast ship" speed="3.65" length="2.34" shape="2322.86,3662.56 2323.69,3662.23 2325.12,3662.45"/>
    </edge>
    <edge id=":11285365784_2" function="internal">
        <lane id=":11285365784_2_0" index="0" disallow="tram rail_urban rail rail_electric rail_fast ship" speed="11.11" length="5.24" shape="2321.25,3658.92 2325.12,3662.45"/>
    </edge>
    <edge id=":11285365784_3" function="internal">
        <lane id=":11285365784_3_0" index="0" disallow="tram rail_urban rail rail_electric rail_fast ship" speed="3.65" length="2.34" shape="2321.25,3658.92 2321.59,3660.32 2321.35,3661.18"/>
    </edge>
    <edge id=":11285365784_5" function="internal">
        <lane id=":11285365784_5_0" index="0" disallow="tram rail_urban rail rail_electric rail_fast ship" speed="3.65" length="2.34" shape="2321.35,3661.18 2320.51,3661.50 2319.09,3661.28"/>
    </edge>
    <edge id=":11285365787_0" function="internal">
        <lane id=":11285365787_0_0" index="0" disallow="tram rail_urban rail rail_electric rail_fast ship" speed="11.11" length="5.71" shape="2212.86,3755.37 2211.23,3760.84"/>
        <lane id=":11285365787_0_1" index="1" disallow="tram rail_urban rail rail_electric rail_fast ship" speed="11.11" length="5.71" shape="2209.79,3754.45 2208.17,3759.93"/>
        <lane id=":11285365787_0_2" index="2" disallow="tram rail_urban rail rail_electric rail_fast ship" speed="11.11" length="5.71" shape="2206.72,3753.54 2205.10,3759.02"/>
    </edge>
    <edge id=":11285365788_0" function="internal">
        <lane id=":11285365788_0_0" index="0" disallow="tram rail_urban rail rail_electric rail_fast ship" speed="11.11" length="4.41" shape="2182.56,3777.69 2183.86,3777.58 2184.76,3777.53 2185.65,3777.43 2186.94,3777.20"/>
    </edge>
    <edge id=":11285365812_0" function="internal">
        <lane id=":11285365812_0_0" index="0" disallow="tram rail_urban rail rail_electric rail_fast ship" speed="13.89" length="4.99" shape="2123.46,3856.96 2127.11,3853.56"/>
    </edge>
    <edge id=":11285365815_0" function="internal">
        <lane id=":11285365815_0_0" index="0" disallow="tram rail_urban rail rail_electric rail_fast ship" speed="11.11" length="6.35" shape="2064.58,3809.86 2063.84,3808.29 2064.03,3806.87 2064.21,3805.45 2063.45,3803.89"/>
    </edge>
    <edge id=":11285365832_0" function="internal">
        <lane id=":11285365832_0_0" index="0" disallow="tram rail_urban rail rail_electric rail_fast ship" speed="22.22" length="5.29" shape="2352.74,3693.98 2356.14,3698.04"/>
        <lane id=":11285365832_0_1" index="1" disallow="tram rail_urban rail rail_electric rail_fast ship" speed="22.22" length="5.29" shape="2350.29,3696.04 2353.69,3700.10"/>
    </edge>
    <edge id=":11285365835_0" function="internal">
        <lane id=":11285365835_0_0" index="0" disallow="tram rail_urban rail rail_electric rail_fast ship" speed="13.89" length="8.67" shape="2482.10,3597.09 2475.67,3602.93"/>
        <lane id=":11285365835_0_1" index="1" disallow="tram rail_urban rail rail_electric rail_fast ship" speed="13.89" length="8.67" shape="2479.94,3594.72 2473.52,3600.56"/>
        <lane id=":11285365835_0_2" index="2" disallow="tram rail_urban rail rail_electric rail_fast ship" speed="13.89" length="8.67" shape="2477.79,3592.36 2471.38,3598.19"/>
    </edge>
    <edge id=":11286325305_0" function="internal">
        <lane id=":11286325305_0_0" index="0" disallow="tram rail_urban rail rail_electric rail_fast ship" speed="11.11" length="5.07" shape="1810.62,3981.88 1807.26,3978.08"/>
        <lane id=":11286325305_0_1" index="1" disallow="tram rail_urban rail rail_electric rail_fast ship" speed="11.11" length="5.07" shape="1813.02,3979.76 1809.66,3975.96"/>
    </edge>
    <edge id=":11286325311_0" function="internal">
        <lane id=":11286325311_0_0" index="0" disallow="tram rail_urban rail rail_electric rail_fast ship" speed="3.65" length="4.67" shape="1710.06,4070.01 1710.30,4071.43 1710.00,4072.28 1709.14,4072.53 1707.74,4072.21"/>
    </edge>
    <edge id=":11292159165_0" function="internal">
        <lane id=":11292159165_0_0" index="0" disallow="tram rail_urban rail rail_electric rail_fast ship" speed="11.11" length="5.90" shape="2112.20,4046.60 2116.21,4051.21"/>
        <lane id=":11292159165_0_1" index="1" disallow="tram rail_urban rail rail_electric rail_fast ship" speed="11.11" length="5.90" shape="2109.86,4048.78 2113.72,4053.23"/>
        <lane id=":11292159165_0_2" index="2" disallow="tram rail_urban rail rail_electric rail_fast ship" speed="11.11" length="5.90" shape="2107.51,4050.95 2111.24,4055.24"/>
    </edge>
    <edge id=":11292167918_0" function="internal">
        <lane id=":11292167918_0_0" index="0" disallow="tram rail_urban rail rail_electric rail_fast ship" speed="11.11" length="5.35" shape="2074.45,4005.92 2078.09,4009.84"/>
        <lane id=":11292167918_0_1" index="1" disallow="tram rail_urban rail rail_electric rail_fast ship" speed="11.11" length="5.35" shape="2072.10,4008.10 2075.74,4012.02"/>
        <lane id=":11292167918_0_2" index="2" disallow="tram rail_urban rail rail_electric rail_fast ship" speed="11.11" length="5.35" shape="2069.76,4010.28 2073.40,4014.20"/>
    </edge>
    <edge id=":11292167920_0" function="internal">
        <lane id=":11292167920_0_0" index="0" disallow="tram rail_urban rail rail_electric rail_fast ship" speed="22.22" length="6.70" shape="2128.30,4041.30 2128.61,4047.88"/>
        <lane id=":11292167920_0_1" index="1" disallow="tram rail_urban rail rail_electric rail_fast ship" speed="22.22" length="6.70" shape="2125.10,4041.40 2125.42,4048.09"/>
        <lane id=":11292167920_0_2" index="2" disallow="tram rail_urban rail rail_electric rail_fast ship" speed="22.22" length="6.70" shape="2121.90,4041.50 2122.22,4048.29"/>
    </edge>
    <edge id=":11292341342_0" function="internal">
        <lane id=":11292341342_0_0" index="0" disallow="tram rail_urban rail rail_electric rail_fast ship" speed="13.89" length="4.41" shape="2151.51,3486.27 2154.47,3489.54"/>
    </edge>
    <edge id=":11292341345_0" function="internal">
        <lane id=":11292341345_0_0" index="0" disallow="tram rail_urban rail rail_electric rail_fast ship" speed="11.11" length="5.31" shape="2147.73,3502.50 2151.68,3498.95"/>
        <lane id=":11292341345_0_1" index="1" disallow="tram rail_urban rail rail_electric rail_fast ship" speed="11.11" length="5.31" shape="2149.87,3504.88 2153.82,3501.33"/>
        <lane id=":11292341345_0_2" index="2" disallow="tram rail_urban rail rail_electric rail_fast ship" speed="11.11" length="5.31" shape="2152.01,3507.26 2155.96,3503.71"/>
    </edge>
    <edge id=":11292341356_0" function="internal">
        <lane id=":11292341356_0_0" index="0" disallow="tram rail_urban rail rail_electric rail_fast ship" speed="11.11" length="5.43" shape="2009.01,3476.33 2012.69,3480.32"/>
        <lane id=":11292341356_0_1" index="1" disallow="tram rail_urban rail rail_electric rail_fast ship" speed="11.11" length="5.43" shape="2006.66,3478.50 2010.34,3482.49"/>
        <lane id=":11292341356_0_2" index="2" disallow="tram rail_urban rail rail_electric rail_fast ship" speed="11.11" length="5.43" shape="2004.31,3480.67 2007.99,3484.66"/>
    </edge>
    <edge id=":11292341362_0" function="internal">
        <lane id=":11292341362_0_0" index="0" disallow="tram rail_urban rail rail_electric rail_fast ship" speed="11.11" length="5.08" shape="2006.60,3457.13 2002.80,3460.51"/>
        <lane id=":11292341362_0_1" index="1" disallow="tram rail_urban rail rail_electric rail_fast ship" speed="11.11" length="5.08" shape="2004.47,3454.74 2000.67,3458.12"/>
    </edge>
    <edge id=":11298557511_0" function="internal">
        <lane id=":11298557511_0_0" index="0" disallow="tram rail_urban rail rail_electric rail_fast ship" speed="11.11" length="6.23" shape="2206.46,4053.48 2204.41,4047.59"/>
        <lane id=":11298557511_0_1" index="1" disallow="tram rail_urban rail rail_electric rail_fast ship" speed="11.11" length="6.23" shape="2209.48,4052.43 2207.44,4046.54"/>
    </edge>
    <edge id=":11298557511_2" function="internal">
        <lane id=":11298557511_2_0" index="0" allow="pedestrian delivery bicycle" speed="4.61" length="4.46" shape="2210.65,4048.61 2209.65,4048.89 2208.79,4048.64 2208.05,4047.85 2207.44,4046.54"/>
    </edge>
    <edge id=":11300068185_0" function="internal">
        <lane id=":11300068185_0_0" index="0" allow="pedestrian delivery bicycle" speed="5.56" length="4.51" shape="2217.75,4070.00 2221.78,4067.99"/>
    </edge>
    <edge id=":11300068186_0" function="internal">
        <lane id=":11300068186_0_0" index="0" allow="pedestrian delivery bicycle" speed="5.56" length="4.32" shape="2214.66,4046.52 2210.82,4048.51"/>
    </edge>
    <edge id=":11300068202_0" function="internal">
        <lane id=":11300068202_0_0" index="0" disallow="tram rail_urban rail rail_electric rail_fast ship" speed="13.89" length="5.30" shape="2214.48,3882.75 2210.75,3878.99"/>
    </edge>
    <edge id=":11300068204_0" function="internal">
        <lane id=":11300068204_0_0" index="0" disallow="tram rail_urban rail rail_electric rail_fast ship" speed="13.89" length="3.11" shape="2203.64,3803.44 2205.00,3800.65"/>
    </edge>
    <edge id=":11300068205_0" function="internal">
        <lane id=":11300068205_0_0" index="0" disallow="tram rail_urban rail rail_electric rail_fast ship" speed="13.89" length="5.13" shape="2191.64,3792.69 2195.33,3789.12"/>
    </edge>
    <edge id=":11300068210_0" function="internal">
        <lane id=":11300068210_0_0" index="0" disallow="tram rail_urban rail rail_electric rail_fast ship" speed="11.11" length="5.43" shape="2164.19,3931.66 2162.41,3926.52"/>
        <lane id=":11300068210_0_1" index="1" disallow="tram rail_urban rail rail_electric rail_fast ship" speed="11.11" length="5.43" shape="2167.21,3930.61 2165.43,3925.47"/>
    </edge>
    <edge id=":11300068214_0" function="internal">
        <lane id=":11300068214_0_0" index="0" disallow="tram rail_urban rail rail_electric rail_fast ship" speed="11.11" length="5.10" shape="2186.51,3995.99 2184.84,3991.18"/>
        <lane id=":11300068214_0_1" index="1" disallow="tram rail_urban rail rail_electric rail_fast ship" speed="11.11" length="5.10" shape="2189.54,3994.95 2187.87,3990.13"/>
    </edge>
    <edge id=":11300935133_0" function="internal">
        <lane id=":11300935133_0_0" index="0" disallow="tram rail_urban rail rail_electric rail_fast ship" speed="13.89" length="5.05" shape="2429.87,3670.82 2426.74,3666.86"/>
    </edge>
    <edge id=":11300935133_1" function="internal">
        <lane id=":11300935133_1_0" index="0" disallow="tram rail_urban rail rail_electric rail_fast ship" speed="3.65" length="2.34" shape="2429.87,3670.82 2429.75,3669.39 2430.12,3668.58"/>
    </edge>
    <edge id=":11300935133_4" function="internal">
        <lane id=":11300935133_4_0" index="0" disallow="tram rail_urban rail rail_electric rail_fast ship" speed="3.65" length="2.34" shape="2430.12,3668.58 2431.00,3668.39 2432.37,3668.83"/>
    </edge>
    <edge id=":11300935133_2" function="internal">
        <lane id=":11300935133_2_0" index="0" disallow="tram rail_urban rail rail_electric rail_fast ship" speed="13.89" length="5.02" shape="2429.25,3664.89 2432.37,3668.83"/>
    </edge>
    <edge id=":11300935133_3" function="internal">
        <lane id=":11300935133_3_0" index="0" disallow="tram rail_urban rail rail_electric rail_fast ship" speed="3.65" length="2.34" shape="2429.25,3664.89 2429.36,3666.33 2428.98,3667.14"/>
    </edge>
    <edge id=":11300935133_5" function="internal">
        <lane id=":11300935133_5_0" index="0" disallow="tram rail_urban rail rail_electric rail_fast ship" speed="3.65" length="2.34" shape="2428.98,3667.14 2428.11,3667.32 2426.74,3666.86"/>
    </edge>
    <edge id=":11300935145_0" function="internal">
        <lane id=":11300935145_0_0" index="0" disallow="tram rail_urban rail rail_electric rail_fast ship" speed="22.22" length="5.07" shape="2519.34,3976.04 2523.67,3978.64"/>
        <lane id=":11300935145_0_1" index="1" disallow="tram rail_urban rail rail_electric rail_fast ship" speed="22.22" length="5.07" shape="2517.68,3978.78 2522.04,3981.39"/>
    </edge>
    <edge id=":11300935148_0" function="internal">
        <lane id=":11300935148_0_0" index="0" disallow="tram rail_urban rail rail_electric rail_fast ship" speed="22.22" length="5.22" shape="2431.11,3850.93 2433.42,3855.61"/>
        <lane id=":11300935148_0_1" index="1" disallow="tram rail_urban rail rail_electric rail_fast ship" speed="22.22" length="5.22" shape="2428.24,3852.35 2430.55,3857.03"/>
    </edge>
    <edge id=":11310264713_0" function="internal">
        <lane id=":11310264713_0_0" index="0" disallow="tram rail_urban rail rail_electric rail_fast ship" speed="11.11" length="5.13" shape="1986.41,3451.94 1989.90,3455.70"/>
        <lane id=":11310264713_0_1" index="1" disallow="tram rail_urban rail rail_electric rail_fast ship" speed="11.11" length="5.13" shape="1984.06,3454.12 1987.56,3457.88"/>
        <lane id=":11310264713_0_2" index="2" disallow="tram rail_urban rail rail_electric rail_fast ship" speed="11.11" length="5.13" shape="1981.72,3456.30 1985.21,3460.06"/>
    </edge>
    <edge id=":11383634073_0" function="internal">
        <lane id=":11383634073_0_0" index="0" allow="pedestrian delivery bicycle" speed="5.56" length="5.99" shape="2387.03,3770.93 2381.08,3770.19"/>
    </edge>
    <edge id=":11383634074_0" function="internal">
        <lane id=":11383634074_0_0" index="0" allow="pedestrian delivery bicycle" speed="5.56" length="5.85" shape="2368.88,3744.98 2371.59,3739.80"/>
    </edge>
    <edge id=":11383634076_0" function="internal">
        <lane id=":11383634076_0_0" index="0" disallow="tram rail_urban rail rail_electric rail_fast ship" speed="22.22" length="5.08" shape="2355.81,3710.78 2352.29,3714.44"/>
        <lane id=":11383634076_0_1" index="1" disallow="tram rail_urban rail rail_electric rail_fast ship" speed="22.22" length="5.08" shape="2353.51,3708.56 2349.98,3712.22"/>
        <lane id=":11383634076_0_2" index="2" disallow="tram rail_urban rail rail_electric rail_fast ship" speed="22.22" length="5.08" shape="2351.21,3706.33 2347.68,3710.00"/>
    </edge>
    <edge id=":11384045671_0" function="internal">
        <lane id=":11384045671_0_0" index="0" disallow="tram rail_urban rail rail_electric rail_fast ship" speed="13.89" length="4.56" shape="2310.42,3971.79 2305.97,3970.79"/>
    </edge>
    <edge id=":11386172370_0" function="internal">
        <lane id=":11386172370_0_0" index="0" disallow="tram rail_urban rail rail_electric rail_fast ship" speed="11.11" length="5.70" shape="1587.45,3502.47 1586.16,3503.55 1585.20,3504.20 1584.18,3504.75 1582.70,3505.59"/>
        <lane id=":11386172370_0_1" index="1" disallow="tram rail_urban rail rail_electric rail_fast ship" speed="11.11" length="5.70" shape="1585.77,3499.67 1584.49,3500.77 1583.54,3501.43 1582.53,3502.00 1581.06,3502.84"/>
    </edge>
    <edge id=":11386203935_0" function="internal">
        <lane id=":11386203935_0_0" index="0" disallow="tram rail_urban rail rail_electric rail_fast ship" speed="11.11" length="4.93" shape="2491.20,3603.99 2488.19,3600.09"/>
        <lane id=":11386203935_0_1" index="1" disallow="tram rail_urban rail rail_electric rail_fast ship" speed="11.11" length="4.93" shape="2493.73,3602.04 2490.72,3598.13"/>
        <lane id=":11386203935_0_2" index="2" disallow="tram rail_urban rail rail_electric rail_fast ship" speed="11.11" length="4.93" shape="2496.27,3600.08 2493.25,3596.18"/>
    </edge>
    <edge id=":11386234868_0" function="internal">
        <lane id=":11386234868_0_0" index="0" disallow="tram rail_urban rail rail_electric rail_fast ship" speed="13.89" length="5.33" shape="2432.08,3641.72 2428.10,3645.26"/>
        <lane id=":11386234868_0_1" index="1" disallow="tram rail_urban rail rail_electric rail_fast ship" speed="13.89" length="5.33" shape="2429.95,3639.33 2425.97,3642.87"/>
        <lane id=":11386234868_0_2" index="2" disallow="tram rail_urban rail rail_electric rail_fast ship" speed="13.89" length="5.33" shape="2427.82,3636.94 2423.85,3640.48"/>
    </edge>
    <edge id=":11404087987_0" function="internal">
        <lane id=":11404087987_0_0" index="0" disallow="tram rail_urban rail rail_electric rail_fast ship" speed="11.11" length="5.21" shape="1603.84,3498.77 1607.39,3502.59"/>
        <lane id=":11404087987_0_1" index="1" disallow="tram rail_urban rail rail_electric rail_fast ship" speed="11.11" length="5.21" shape="1601.50,3500.95 1605.04,3504.76"/>
        <lane id=":11404087987_0_2" index="2" disallow="tram rail_urban rail rail_electric rail_fast ship" speed="11.11" length="5.21" shape="1599.15,3503.12 1602.70,3506.94"/>
    </edge>
    <edge id=":11404088048_0" function="internal">
        <lane id=":11404088048_0_0" index="0" disallow="tram rail_urban rail rail_electric rail_fast ship" speed="13.89" length="4.47" shape="1605.31,3486.05 1602.04,3489.10"/>
        <lane id=":11404088048_0_1" index="1" disallow="tram rail_urban rail rail_electric rail_fast ship" speed="13.89" length="4.47" shape="1603.13,3483.71 1599.85,3486.75"/>
    </edge>
    <edge id=":12084737069_0" function="internal">
        <lane id=":12084737069_0_0" index="0" disallow="tram rail_urban rail rail_electric rail_fast ship" speed="13.89" length="5.12" shape="2564.07,3525.05 2560.28,3528.48"/>
        <lane id=":12084737069_0_1" index="1" disallow="tram rail_urban rail rail_electric rail_fast ship" speed="13.89" length="5.12" shape="2561.92,3522.67 2558.13,3526.11"/>
        <lane id=":12084737069_0_2" index="2" disallow="tram rail_urban rail rail_electric rail_fast ship" speed="13.89" length="5.12" shape="2559.78,3520.30 2555.98,3523.74"/>
        <lane id=":12084737069_0_3" index="3" disallow="tram rail_urban rail rail_electric rail_fast ship" speed="13.89" length="5.12" shape="2557.63,3517.93 2553.84,3521.36"/>
    </edge>
    <edge id=":12084737069_4" function="internal">