<?xml version="1.0" encoding="UTF-8"?>

<!-- generated on Mon Jun  9 20:01:10 2025 by Eclipse SUMO netconvert Version 1.8.0
<configuration xmlns:xsi="http://www.w3.org/2001/XMLSchema-instance" xsi:noNamespaceSchemaLocation="http://sumo.dlr.de/xsd/netconvertConfiguration.xsd">

    <input>
        <osm-files value="map.osm"/>
    </input>

    <output>
        <output-file value="cenarioB.net.xml"/>
    </output>

    <projection>
        <proj.utm value="true"/>
    </projection>

    <processing>
        <geometry.remove value="true"/>
    </processing>

    <tls_building>
        <tls.discard-simple value="true"/>
    </tls_building>

    <ramp_guessing>
        <ramps.guess value="true"/>
    </ramp_guessing>

    <report>
        <aggregate-warnings value="5"/>
    </report>

</configuration>
-->

<net version="1.6" junctionCornerDetail="5" limitTurnSpeed="5.50" xmlns:xsi="http://www.w3.org/2001/XMLSchema-instance" xsi:noNamespaceSchemaLocation="http://sumo.dlr.de/xsd/net_file.xsd">

    <location netOffset="-606170.98,2241719.02" convBoundary="0.00,0.00,2752.68,10833.97" origBoundary="-43.993822,-20.270153,-43.957512,-20.172306" projParameter="+proj=utm +zone=23 +ellps=WGS84 +datum=WGS84 +units=m +no_defs"/>

    <type id="highway.bridleway" priority="1" numLanes="1" speed="2.78" allow="pedestrian" oneway="1" width="2.00"/>
    <type id="highway.bus_guideway" priority="1" numLanes="1" speed="27.78" allow="bus" oneway="1"/>
    <type id="highway.cycleway" priority="1" numLanes="1" speed="8.33" allow="bicycle" oneway="0" width="1.00"/>
    <type id="highway.footway" priority="1" numLanes="1" speed="2.78" allow="pedestrian" oneway="1" width="2.00"/>
    <type id="highway.ford" priority="1" numLanes="1" speed="2.78" allow="army" oneway="0"/>
    <type id="highway.living_street" priority="2" numLanes="1" speed="2.78" disallow="tram rail_urban rail rail_electric rail_fast ship" oneway="0"/>
    <type id="highway.motorway" priority="14" numLanes="2" speed="39.44" allow="private emergency authority army vip passenger hov taxi bus coach delivery truck trailer motorcycle evehicle custom1 custom2" oneway="1"/>
    <type id="highway.motorway_link" priority="9" numLanes="1" speed="22.22" allow="private emergency authority army vip passenger hov taxi bus coach delivery truck trailer motorcycle evehicle custom1 custom2" oneway="1"/>
    <type id="highway.path" priority="1" numLanes="1" speed="2.78" allow="pedestrian bicycle" oneway="0" width="2.00"/>
    <type id="highway.pedestrian" priority="1" numLanes="1" speed="2.78" allow="pedestrian" oneway="1" width="2.00"/>
    <type id="highway.primary" priority="12" numLanes="2" speed="27.78" disallow="tram rail_urban rail rail_electric rail_fast ship" oneway="0"/>
    <type id="highway.primary_link" priority="7" numLanes="1" speed="22.22" disallow="tram rail_urban rail rail_electric rail_fast ship" oneway="0"/>
    <type id="highway.raceway" priority="15" numLanes="2" speed="83.33" allow="vip" oneway="0"/>
    <type id="highway.residential" priority="3" numLanes="1" speed="13.89" disallow="tram rail_urban rail rail_electric rail_fast ship" oneway="0"/>
    <type id="highway.secondary" priority="11" numLanes="1" speed="27.78" disallow="tram rail_urban rail rail_electric rail_fast ship" oneway="0"/>
    <type id="highway.secondary_link" priority="6" numLanes="1" speed="22.22" disallow="tram rail_urban rail rail_electric rail_fast ship" oneway="0"/>
    <type id="highway.service" priority="1" numLanes="1" speed="5.56" allow="pedestrian delivery bicycle" oneway="0"/>
    <type id="highway.stairs" priority="1" numLanes="1" speed="1.39" allow="pedestrian" oneway="1" width="2.00"/>
    <type id="highway.step" priority="1" numLanes="1" speed="1.39" allow="pedestrian" oneway="1" width="2.00"/>
    <type id="highway.steps" priority="1" numLanes="1" speed="1.39" allow="pedestrian" oneway="1" width="2.00"/>
    <type id="highway.tertiary" priority="10" numLanes="1" speed="22.22" disallow="tram rail_urban rail rail_electric rail_fast ship" oneway="0"/>
    <type id="highway.tertiary_link" priority="5" numLanes="1" speed="22.22" disallow="tram rail_urban rail rail_electric rail_fast ship" oneway="0"/>
    <type id="highway.track" priority="1" numLanes="1" speed="5.56" allow="pedestrian motorcycle moped bicycle" oneway="0"/>
    <type id="highway.trunk" priority="13" numLanes="2" speed="27.78" disallow="pedestrian bicycle tram rail_urban rail rail_electric rail_fast ship" oneway="0"/>
    <type id="highway.trunk_link" priority="8" numLanes="1" speed="22.22" disallow="pedestrian bicycle tram rail_urban rail rail_electric rail_fast ship" oneway="0"/>
    <type id="highway.unclassified" priority="4" numLanes="1" speed="13.89" disallow="tram rail_urban rail rail_electric rail_fast ship" oneway="0"/>
    <type id="highway.unsurfaced" priority="1" numLanes="1" speed="8.33" disallow="tram rail_urban rail rail_electric rail_fast ship" oneway="0"/>
    <type id="railway.highspeed" priority="21" numLanes="1" speed="69.44" allow="rail_fast" oneway="1"/>
    <type id="railway.light_rail" priority="19" numLanes="1" speed="27.78" allow="rail_urban" oneway="1"/>
    <type id="railway.preserved" priority="16" numLanes="1" speed="27.78" allow="rail" oneway="1"/>
    <type id="railway.rail" priority="20" numLanes="1" speed="44.44" allow="rail" oneway="1"/>
    <type id="railway.subway" priority="18" numLanes="1" speed="27.78" allow="rail_urban" oneway="1"/>
    <type id="railway.tram" priority="17" numLanes="1" speed="13.89" allow="tram" oneway="1"/>

    <edge id=":11911243880_0" function="internal">
        <lane id=":11911243880_0_0" index="0" allow="pedestrian delivery bicycle" speed="3.65" length="4.67" shape="1854.59,8915.92 1854.58,8917.37 1854.13,8918.14 1853.24,8918.24 1851.91,8917.67"/>
    </edge>
    <edge id=":11911243888_0" function="internal">
        <lane id=":11911243888_0_0" index="0" allow="pedestrian delivery bicycle" speed="3.65" length="4.67" shape="1830.10,8930.67 1831.39,8931.32 1831.88,8932.06 1831.59,8932.91 1830.49,8933.85"/>
    </edge>
    <edge id=":11911243894_0" function="internal">
        <lane id=":11911243894_0_0" index="0" allow="pedestrian delivery bicycle" speed="5.56" length="9.08" shape="1760.85,8930.52 1751.93,8928.81"/>
    </edge>
    <edge id=":11911243894_1" function="internal">
        <lane id=":11911243894_1_0" index="0" allow="pedestrian delivery bicycle" speed="5.56" length="10.02" shape="1760.85,8930.52 1758.40,8929.56 1756.76,8927.99 1755.94,8925.82 1755.94,8923.03"/>
    </edge>
    <edge id=":11911243894_2" function="internal">
        <lane id=":11911243894_2_0" index="0" allow="pedestrian delivery bicycle" speed="3.65" length="4.67" shape="1760.85,8930.52 1759.86,8929.47 1759.64,8928.60 1760.21,8927.91 1761.56,8927.40"/>
    </edge>
    <edge id=":11911243894_3" function="internal">
        <lane id=":11911243894_3_0" index="0" allow="pedestrian delivery bicycle" speed="5.29" length="5.20" shape="1759.11,8923.44 1759.10,8924.93 1759.51,8926.08 1760.33,8926.91 1761.56,8927.40"/>
    </edge>
    <edge id=":11911243894_4" function="internal">
        <lane id=":11911243894_4_0" index="0" allow="pedestrian delivery bicycle" speed="5.56" length="10.29" shape="1759.11,8923.44 1758.35,8926.17 1756.90,8927.97 1754.76,8928.85 1751.93,8928.81"/>
    </edge>
    <edge id=":11911243894_5" function="internal">
        <lane id=":11911243894_5_0" index="0" allow="pedestrian delivery bicycle" speed="3.65" length="4.67" shape="1759.11,8923.44 1758.16,8924.53 1757.32,8924.82 1756.57,8924.32 1755.94,8923.03"/>
    </edge>
    <edge id=":11911243894_6" function="internal">
        <lane id=":11911243894_6_0" index="0" allow="pedestrian delivery bicycle" speed="5.01" length="5.03" shape="1752.42,8925.65 1753.81,8925.67 1754.85,8925.24 1755.56,8924.36 1755.94,8923.03"/>
    </edge>
    <edge id=":11911243894_7" function="internal">
        <lane id=":11911243894_7_0" index="0" allow="pedestrian delivery bicycle" speed="5.56" length="9.30" shape="1752.42,8925.65 1761.56,8927.40"/>
    </edge>
    <edge id=":11911243894_8" function="internal">
        <lane id=":11911243894_8_0" index="0" allow="pedestrian delivery bicycle" speed="3.65" length="4.67" shape="1752.42,8925.65 1753.49,8926.63 1753.76,8927.48 1753.24,8928.21 1751.93,8928.81"/>
    </edge>
    <edge id=":11911243901_0" function="internal">
        <lane id=":11911243901_0_0" index="0" allow="pedestrian delivery bicycle" speed="3.65" length="4.67" shape="1953.79,8778.09 1954.60,8776.89 1955.40,8776.50 1956.20,8776.91 1956.99,8778.11"/>
    </edge>
    <edge id=":11911243909_0" function="internal">
        <lane id=":11911243909_0_0" index="0" allow="pedestrian delivery bicycle" speed="5.29" length="5.31" shape="1731.98,8863.26 1731.33,8861.87 1730.45,8860.98 1729.34,8860.59 1728.00,8860.71"/>
    </edge>
    <edge id=":11911243909_1" function="internal">
        <lane id=":11911243909_1_0" index="0" allow="pedestrian delivery bicycle" speed="5.56" length="10.54" shape="1731.98,8863.26 1731.47,8860.39 1732.04,8858.11 1733.67,8856.42 1736.37,8855.32"/>
    </edge>
    <edge id=":11911243909_2" function="internal">
        <lane id=":11911243909_2_0" index="0" allow="pedestrian delivery bicycle" speed="3.65" length="4.67" shape="1731.98,8863.26 1732.37,8861.87 1733.00,8861.24 1733.89,8861.37 1735.02,8862.26"/>
    </edge>
    <edge id=":11911243909_3" function="internal">
        <lane id=":11911243909_3_0" index="0" allow="pedestrian delivery bicycle" speed="4.96" length="5.09" shape="1737.14,8858.42 1735.84,8858.95 1735.05,8859.77 1734.78,8860.87 1735.02,8862.26"/>
    </edge>
    <edge id=":11911243909_4" function="internal">
        <lane id=":11911243909_4_0" index="0" allow="pedestrian delivery bicycle" speed="5.56" length="9.42" shape="1737.14,8858.42 1728.00,8860.71"/>
    </edge>
    <edge id=":11911243909_5" function="internal">
        <lane id=":11911243909_5_0" index="0" allow="pedestrian delivery bicycle" speed="3.65" length="4.67" shape="1737.14,8858.42 1735.78,8857.93 1735.20,8857.25 1735.40,8856.38 1736.37,8855.32"/>
    </edge>
    <edge id=":11911243909_6" function="internal">
        <lane id=":11911243909_6_0" index="0" allow="pedestrian delivery bicycle" speed="5.56" length="9.43" shape="1727.22,8857.61 1736.37,8855.32"/>
    </edge>
    <edge id=":11911243909_7" function="internal">
        <lane id=":11911243909_7_0" index="0" allow="pedestrian delivery bicycle" speed="5.56" length="10.20" shape="1727.22,8857.61 1729.88,8857.35 1732.06,8858.04 1733.78,8859.68 1735.02,8862.26"/>
    </edge>
    <edge id=":11911243909_8" function="internal">
        <lane id=":11911243909_8_0" index="0" allow="pedestrian delivery bicycle" speed="3.65" length="4.67" shape="1727.22,8857.61 1728.58,8858.09 1729.16,8858.77 1728.97,8859.64 1728.00,8860.71"/>
    </edge>
    <edge id=":12541980155_0" function="internal">
        <lane id=":12541980155_0_0" index="0" allow="pedestrian bicycle" speed="2.78" length="2.92" width="2.00" shape="797.24,9919.62 796.35,9919.77 795.83,9919.58 795.67,9919.04 795.87,9918.16"/>
    </edge>
    <edge id=":12541980260_0" function="internal">
        <lane id=":12541980260_0_0" index="0" allow="pedestrian bicycle" speed="2.78" length="4.86" width="2.00" shape="378.21,9323.26 377.20,9322.91 376.15,9323.00 375.04,9323.52 373.88,9324.48"/>
    </edge>
    <edge id=":12541980260_1" function="internal">
        <lane id=":12541980260_1_0" index="0" allow="pedestrian bicycle" speed="2.78" length="7.14" width="2.00" shape="378.21,9323.26 372.04,9319.67"/>
    </edge>
    <edge id=":12541980260_2" function="internal">
        <lane id=":12541980260_2_0" index="0" allow="pedestrian bicycle" speed="2.78" length="2.92" width="2.00" shape="378.21,9323.26 377.81,9322.46 377.85,9321.90 378.31,9321.59 379.21,9321.54"/>
    </edge>
    <edge id=":12541980260_3" function="internal">
        <lane id=":12541980260_3_0" index="0" allow="pedestrian bicycle" speed="2.78" length="7.14" width="2.00" shape="373.04,9317.94 379.21,9321.54"/>
    </edge>
    <edge id=":12541980260_4" function="internal">
        <lane id=":12541980260_4_0" index="0" allow="pedestrian bicycle" speed="2.78" length="8.07" width="2.00" shape="373.04,9317.94 374.85,9319.37 375.59,9320.94 375.27,9322.64 373.88,9324.48"/>
    </edge>
    <edge id=":12541980260_5" function="internal">
        <lane id=":12541980260_5_0" index="0" allow="pedestrian bicycle" speed="2.78" length="2.92" width="2.00" shape="373.04,9317.94 373.44,9318.75 373.40,9319.31 372.94,9319.62 372.04,9319.67"/>
    </edge>
    <edge id=":12541980260_6" function="internal">
        <lane id=":12541980260_6_0" index="0" allow="pedestrian bicycle" speed="2.78" length="4.18" width="2.00" shape="372.47,9323.06 373.19,9322.11 373.36,9321.22 372.97,9320.41 372.04,9319.67"/>
    </edge>
    <edge id=":12541980260_7" function="internal">
        <lane id=":12541980260_7_0" index="0" allow="pedestrian bicycle" speed="2.78" length="7.49" width="2.00" shape="372.47,9323.06 374.19,9321.68 375.89,9320.96 377.56,9320.91 379.21,9321.54"/>
    </edge>
    <edge id=":12541980260_8" function="internal">
        <lane id=":12541980260_8_0" index="0" allow="pedestrian bicycle" speed="2.78" length="2.92" width="2.00" shape="372.47,9323.06 373.35,9322.88 373.88,9323.06 374.06,9323.59 373.88,9324.48"/>
    </edge>
    <edge id=":12838084922_0" function="internal">
        <lane id=":12838084922_0_0" index="0" allow="pedestrian bicycle" speed="2.78" length="2.92" width="2.00" shape="961.26,8581.58 961.16,8582.48 960.83,8582.93 960.27,8582.93 959.48,8582.49"/>
    </edge>
    <edge id=":12838084977_0" function="internal">
        <lane id=":12838084977_0_0" index="0" disallow="tram rail_urban rail rail_electric rail_fast ship" speed="27.78" length="7.02" shape="672.17,8851.98 667.53,8857.25"/>
        <lane id=":12838084977_0_1" index="1" disallow="tram rail_urban rail rail_electric rail_fast ship" speed="27.78" length="7.02" shape="669.77,8849.87 665.13,8855.13"/>
    </edge>
    <edge id=":12838084977_2" function="internal">
        <lane id=":12838084977_2_0" index="0" allow="pedestrian bicycle" speed="7.21" length="3.55" width="2.00" shape="669.77,8849.87 667.86,8851.11 666.59,8851.05"/>
    </edge>
    <edge id=":12838084977_3" function="internal">
        <lane id=":12838084977_3_0" index="0" disallow="tram rail_urban rail rail_electric rail_fast ship" speed="3.65" length="2.34" shape="669.77,8849.87 668.37,8850.24 667.51,8850.01"/>
    </edge>
    <edge id=":12838084977_11" function="internal">
        <lane id=":12838084977_11_0" index="0" allow="pedestrian bicycle" speed="7.21" length="8.44" width="2.00" shape="666.59,8851.05 665.52,8851.01 662.76,8849.54 659.57,8846.72"/>
    </edge>
    <edge id=":12838084977_12" function="internal">
        <lane id=":12838084977_12_0" index="0" disallow="tram rail_urban rail rail_electric rail_fast ship" speed="3.65" length="2.34" shape="667.51,8850.01 667.17,8849.18 667.36,8847.75"/>
    </edge>
    <edge id=":12838084977_4" function="internal">
        <lane id=":12838084977_4_0" index="0" allow="pedestrian bicycle" speed="4.58" length="4.59" shape="661.01,8845.33 662.09,8846.20 663.11,8846.55 664.06,8846.36 664.96,8845.64"/>
    </edge>
    <edge id=":12838084977_5" function="internal">
        <lane id=":12838084977_5_0" index="0" allow="pedestrian bicycle" speed="7.34" length="11.47" shape="661.01,8845.33 663.78,8848.52 665.38,8851.22 665.83,8853.42 665.13,8855.13"/>
    </edge>
    <edge id=":12838084977_6" function="internal">
        <lane id=":12838084977_6_0" index="0" allow="pedestrian bicycle" speed="2.78" length="2.92" width="2.00" shape="661.01,8845.33 661.17,8846.22 660.99,8846.74 660.46,8846.91 659.57,8846.72"/>
    </edge>
    <edge id=":12838084977_7" function="internal">
        <lane id=":12838084977_7_0" index="0" allow="pedestrian bicycle" speed="5.05" length="4.73" width="2.00" shape="660.33,8850.90 660.87,8849.97 660.92,8848.96 660.49,8847.88 659.57,8846.72"/>
    </edge>
    <edge id=":12838084977_8" function="internal">
        <lane id=":12838084977_8_0" index="0" disallow="tram rail_urban rail rail_electric rail_fast ship" speed="27.78" length="7.01" shape="660.33,8850.90 664.96,8845.64"/>
        <lane id=":12838084977_8_1" index="1" disallow="tram rail_urban rail rail_electric rail_fast ship" speed="27.78" length="7.01" shape="662.73,8853.02 667.36,8847.75"/>
    </edge>
    <edge id=":12838084977_10" function="internal">
        <lane id=":12838084977_10_0" index="0" disallow="tram rail_urban rail rail_electric rail_fast ship" speed="3.65" length="2.34" shape="662.73,8853.02 664.12,8852.65 664.98,8852.87"/>
    </edge>
    <edge id=":12838084977_13" function="internal">
        <lane id=":12838084977_13_0" index="0" disallow="tram rail_urban rail rail_electric rail_fast ship" speed="3.65" length="2.34" shape="664.98,8852.87 665.32,8853.70 665.13,8855.13"/>
    </edge>
    <edge id=":161706010#1-AddedOffRampNode_0" function="internal">
        <lane id=":161706010#1-AddedOffRampNode_0_0" index="0" disallow="tram rail_urban rail rail_electric rail_fast ship" speed="27.78" length="8.40" shape="959.94,8596.15 961.53,8594.20 962.02,8592.37 962.51,8590.55 964.10,8588.60"/>
        <lane id=":161706010#1-AddedOffRampNode_0_1" index="1" disallow="tram rail_urban rail rail_electric rail_fast ship" speed="27.78" length="8.40" shape="959.94,8596.15 966.13,8591.07"/>
    </edge>
    <edge id=":161706010#1-AddedOnRampNode_0" function="internal">
        <lane id=":161706010#1-AddedOnRampNode_0_0" index="0" disallow="tram rail_urban rail rail_electric rail_fast ship" speed="27.78" length="8.00" shape="882.24,8659.85 888.43,8654.77"/>
    </edge>
    <edge id=":1736649677_0" function="internal">
        <lane id=":1736649677_0_0" index="0" disallow="pedestrian bicycle tram rail_urban rail rail_electric rail_fast ship" speed="27.78" length="22.46" shape="1119.93,8437.85 1108.52,8418.44"/>
        <lane id=":1736649677_0_1" index="1" disallow="pedestrian bicycle tram rail_urban rail rail_electric rail_fast ship" speed="27.78" length="22.46" shape="1122.59,8436.08 1111.24,8416.77"/>
    </edge>
    <edge id=":1736649677_2" function="internal">
        <lane id=":1736649677_2_0" index="0" disallow="pedestrian bicycle tram rail_urban rail rail_electric rail_fast ship" speed="3.65" length="2.34" shape="1122.59,8436.08 1122.59,8434.63 1123.03,8433.86"/>
    </edge>
    <edge id=":1736649677_7" function="internal">
        <lane id=":1736649677_7_0" index="0" disallow="pedestrian bicycle tram rail_urban rail rail_electric rail_fast ship" speed="3.65" length="2.34" shape="1123.03,8433.86 1123.92,8433.75 1125.25,8434.30"/>
    </edge>
    <edge id=":1736649677_3" function="internal">
        <lane id=":1736649677_3_0" index="0" disallow="pedestrian bicycle tram rail_urban rail rail_electric rail_fast ship" speed="25.00" length="22.21" shape="1120.59,8411.71 1121.54,8415.82 1122.69,8420.80 1124.63,8426.44 1127.92,8432.53"/>
    </edge>
    <edge id=":1736649677_4" function="internal">
        <lane id=":1736649677_4_0" index="0" disallow="pedestrian bicycle tram rail_urban rail rail_electric rail_fast ship" speed="27.78" length="22.21" shape="1116.70,8413.42 1127.92,8432.53"/>
        <lane id=":1736649677_4_1" index="1" disallow="pedestrian bicycle tram rail_urban rail rail_electric rail_fast ship" speed="27.78" length="22.21" shape="1113.97,8415.10 1125.25,8434.30"/>
    </edge>
    <edge id=":1736649677_6" function="internal">
        <lane id=":1736649677_6_0" index="0" disallow="pedestrian bicycle tram rail_urban rail rail_electric rail_fast ship" speed="3.65" length="2.34" shape="1113.97,8415.10 1113.92,8416.54 1113.44,8417.30"/>
    </edge>
    <edge id=":1736649677_8" function="internal">
        <lane id=":1736649677_8_0" index="0" disallow="pedestrian bicycle tram rail_urban rail rail_electric rail_fast ship" speed="3.65" length="2.34" shape="1113.44,8417.30 1112.55,8417.37 1111.24,8416.77"/>
    </edge>
    <edge id=":1736649682_0" function="internal">
        <lane id=":1736649682_0_0" index="0" allow="pedestrian bicycle" speed="2.78" length="3.00" width="2.00" shape="1183.13,8432.82 1182.23,8432.64 1181.79,8432.27 1181.83,8431.70 1182.34,8430.93"/>
    </edge>
    <edge id=":1736649682_1" function="internal">
        <lane id=":1736649682_1_0" index="0" disallow="pedestrian bicycle tram rail_urban rail rail_electric rail_fast ship" speed="25.00" length="28.71" shape="1157.78,8445.55 1162.55,8442.08 1169.45,8437.17 1176.29,8432.19 1180.89,8428.52"/>
    </edge>
    <edge id=":1736649682_2" function="internal">
        <lane id=":1736649682_2_0" index="0" allow="pedestrian bicycle" speed="15.28" length="28.59" width="2.00" shape="1157.78,8445.55 1162.72,8442.39 1170.02,8438.19 1177.35,8434.01 1182.34,8430.93"/>
    </edge>
    <edge id=":1736649690_0" function="internal">
        <lane id=":1736649690_0_0" index="0" disallow="pedestrian bicycle tram rail_urban rail rail_electric rail_fast ship" speed="13.84" length="9.53" shape="1161.92,8331.74 1159.20,8331.53 1157.34,8331.98 1155.52,8332.91 1152.92,8334.08"/>
    </edge>
    <edge id=":1736649690_1" function="internal">
        <lane id=":1736649690_1_0" index="0" allow="delivery" speed="13.89" length="9.09" shape="1161.92,8331.74 1159.24,8331.39 1157.36,8331.26 1155.55,8330.93 1153.06,8329.98"/>
    </edge>
    <edge id=":1736649690_2" function="internal">
        <lane id=":1736649690_2_0" index="0" allow="delivery" speed="5.87" length="11.40" shape="1154.39,8327.07 1157.19,8328.83 1157.88,8330.59 1156.46,8332.34 1152.92,8334.08"/>
    </edge>
    <edge id=":1736649690_3" function="internal">
        <lane id=":1736649690_3_0" index="0" allow="pedestrian delivery bicycle" speed="3.65" length="4.67" shape="1154.39,8327.07 1155.15,8328.29 1155.18,8329.19 1154.48,8329.75 1153.06,8329.98"/>
    </edge>
    <edge id=":2037125212_0" function="internal">
        <lane id=":2037125212_0_0" index="0" disallow="tram rail_urban rail rail_electric rail_fast ship" speed="27.78" length="10.46" shape="560.48,8684.48 555.49,8675.31"/>
        <lane id=":2037125212_0_1" index="1" disallow="tram rail_urban rail rail_electric rail_fast ship" speed="27.78" length="10.46" shape="563.31,8682.99 558.30,8673.78"/>
    </edge>
    <edge id=":2037125212_2" function="internal">
        <lane id=":2037125212_2_0" index="0" allow="pedestrian delivery bicycle" speed="10.26" length="2.76" shape="563.31,8682.99 563.27,8681.56 563.67,8680.30"/>
    </edge>
    <edge id=":2037125212_3" function="internal">
        <lane id=":2037125212_3_0" index="0" disallow="tram rail_urban rail rail_electric rail_fast ship" speed="3.65" length="2.34" shape="563.31,8682.99 563.46,8681.55 563.98,8680.83"/>
    </edge>
    <edge id=":2037125212_11" function="internal">
        <lane id=":2037125212_11_0" index="0" allow="pedestrian delivery bicycle" speed="10.26" length="10.59" shape="563.67,8680.30 564.06,8679.05 565.70,8675.43 568.17,8670.73"/>
    </edge>
    <edge id=":2037125212_12" function="internal">
        <lane id=":2037125212_12_0" index="0" disallow="tram rail_urban rail rail_electric rail_fast ship" speed="3.65" length="2.34" shape="563.98,8680.83 564.87,8680.81 566.14,8681.49"/>
    </edge>
    <edge id=":2037125212_4" function="internal">
        <lane id=":2037125212_4_0" index="0" allow="pedestrian delivery bicycle" speed="8.16" length="8.21" shape="570.97,8672.27 569.68,8674.87 568.92,8677.02 568.68,8678.73 568.97,8680.00"/>
    </edge>
    <edge id=":2037125212_5" function="internal">
        <lane id=":2037125212_5_0" index="0" allow="pedestrian delivery bicycle" speed="7.51" length="17.73" shape="570.97,8672.27 567.64,8676.98 564.42,8678.80 561.30,8677.74 558.30,8673.78"/>
    </edge>
    <edge id=":2037125212_6" function="internal">
        <lane id=":2037125212_6_0" index="0" allow="pedestrian delivery bicycle" speed="3.65" length="4.67" shape="570.97,8672.27 569.69,8672.94 568.80,8672.90 568.29,8672.16 568.17,8670.73"/>
    </edge>
    <edge id=":2037125212_7" function="internal">
        <lane id=":2037125212_7_0" index="0" allow="pedestrian delivery bicycle" speed="4.67" length="5.93" shape="563.92,8670.72 564.98,8672.17 566.04,8672.66 567.11,8672.18 568.17,8670.73"/>
    </edge>
    <edge id=":2037125212_8" function="internal">
        <lane id=":2037125212_8_0" index="0" disallow="tram rail_urban rail rail_electric rail_fast ship" speed="27.78" length="10.54" shape="563.92,8670.72 568.97,8680.00"/>
        <lane id=":2037125212_8_1" index="1" disallow="tram rail_urban rail rail_electric rail_fast ship" speed="27.78" length="10.54" shape="561.11,8672.25 566.14,8681.49"/>
    </edge>
    <edge id=":2037125212_10" function="internal">
        <lane id=":2037125212_10_0" index="0" disallow="tram rail_urban rail rail_electric rail_fast ship" speed="3.65" length="2.34" shape="561.11,8672.25 560.99,8673.69 560.47,8674.42"/>
    </edge>
    <edge id=":2037125212_13" function="internal">
        <lane id=":2037125212_13_0" index="0" disallow="tram rail_urban rail rail_electric rail_fast ship" speed="3.65" length="2.34" shape="560.47,8674.42 559.58,8674.45 558.30,8673.78"/>
    </edge>
    <edge id=":2278432551_0" function="internal">
        <lane id=":2278432551_0_0" index="0" disallow="pedestrian bicycle tram rail_urban rail rail_electric rail_fast ship" speed="27.78" length="7.16" shape="1449.14,8932.66 1445.21,8926.68"/>
        <lane id=":2278432551_0_1" index="1" disallow="pedestrian bicycle tram rail_urban rail rail_electric rail_fast ship" speed="27.78" length="7.16" shape="1451.81,8930.90 1447.87,8924.91"/>
    </edge>
    <edge id=":2278432551_2" function="internal">
        <lane id=":2278432551_2_0" index="0" disallow="pedestrian bicycle tram rail_urban rail rail_electric rail_fast ship" speed="3.65" length="2.34" shape="1451.81,8930.90 1451.82,8929.45 1452.27,8928.68"/>
    </edge>
    <edge id=":2278432551_7" function="internal">
        <lane id=":2278432551_7_0" index="0" disallow="pedestrian bicycle tram rail_urban rail rail_electric rail_fast ship" speed="3.65" length="2.34" shape="1452.27,8928.68 1453.15,8928.57 1454.48,8929.13"/>
    </edge>
    <edge id=":2278432551_3" function="internal">
        <lane id=":2278432551_3_0" index="0" allow="delivery" speed="8.16" length="6.78" shape="1453.20,8921.37 1454.05,8922.22 1455.36,8922.92 1457.12,8923.45 1459.35,8923.84"/>
    </edge>
    <edge id=":2278432551_4" function="internal">
        <lane id=":2278432551_4_0" index="0" disallow="pedestrian bicycle tram rail_urban rail rail_electric rail_fast ship" speed="27.78" length="7.18" shape="1453.20,8921.37 1457.15,8927.37"/>
        <lane id=":2278432551_4_1" index="1" disallow="pedestrian bicycle tram rail_urban rail rail_electric rail_fast ship" speed="27.78" length="7.18" shape="1450.54,8923.14 1454.48,8929.13"/>
    </edge>
    <edge id=":2278432551_6" function="internal">
        <lane id=":2278432551_6_0" index="0" disallow="pedestrian bicycle tram rail_urban rail rail_electric rail_fast ship" speed="3.65" length="2.34" shape="1450.54,8923.14 1450.54,8924.58 1450.09,8925.36"/>
    </edge>
    <edge id=":2278432551_8" function="internal">
        <lane id=":2278432551_8_0" index="0" disallow="pedestrian bicycle tram rail_urban rail rail_electric rail_fast ship" speed="3.65" length="2.34" shape="1450.09,8925.36 1449.20,8925.47 1447.87,8924.91"/>
    </edge>
    <edge id=":2278432565_0" function="internal">
        <lane id=":2278432565_0_0" index="0" disallow="pedestrian bicycle tram rail_urban rail rail_electric rail_fast ship" speed="25.00" length="8.74" shape="1070.43,8362.22 1069.84,8359.70 1069.35,8357.99 1068.74,8356.32 1067.75,8353.92"/>
    </edge>
    <edge id=":2278432565_1" function="internal">
        <lane id=":2278432565_1_0" index="0" disallow="pedestrian bicycle tram rail_urban rail rail_electric rail_fast ship" speed="27.78" length="9.13" shape="1074.33,8360.23 1072.62,8358.15 1070.87,8357.16 1069.20,8356.12 1067.75,8353.92"/>
        <lane id=":2278432565_1_1" index="1" disallow="pedestrian bicycle tram rail_urban rail rail_electric rail_fast ship" speed="27.78" length="9.13" shape="1077.13,8358.68 1075.47,8356.70 1073.75,8355.77 1072.12,8354.81 1070.71,8352.70"/>
    </edge>
    <edge id=":2278432565_3" function="internal">
        <lane id=":2278432565_3_0" index="0" disallow="pedestrian bicycle tram rail_urban rail rail_electric rail_fast ship" speed="3.65" length="1.97" shape="1077.13,8358.68 1077.25,8357.25 1077.55,8356.81"/>
    </edge>
    <edge id=":2278432565_7" function="internal">
        <lane id=":2278432565_7_0" index="0" disallow="pedestrian bicycle tram rail_urban rail rail_electric rail_fast ship" speed="3.65" length="2.70" shape="1077.55,8356.81 1077.76,8356.51 1078.65,8356.47 1079.93,8357.14"/>
    </edge>
    <edge id=":2278432565_4" function="internal">
        <lane id=":2278432565_4_0" index="0" disallow="pedestrian bicycle tram rail_urban rail rail_electric rail_fast ship" speed="27.78" length="8.47" shape="1076.63,8350.27 1077.96,8352.18 1079.53,8353.01 1081.17,8353.79 1082.73,8355.60"/>
        <lane id=":2278432565_4_1" index="1" disallow="pedestrian bicycle tram rail_urban rail rail_electric rail_fast ship" speed="27.78" length="8.47" shape="1073.67,8351.48 1075.04,8353.49 1076.64,8354.39 1078.32,8355.25 1079.93,8357.14"/>
    </edge>
    <edge id=":2278432565_6" function="internal">
        <lane id=":2278432565_6_0" index="0" disallow="pedestrian bicycle tram rail_urban rail rail_electric rail_fast ship" speed="3.65" length="1.98" shape="1073.67,8351.48 1073.39,8352.90 1073.04,8353.30"/>
    </edge>
    <edge id=":2278432565_8" function="internal">