<?xml version='1.0' encoding='utf-8'?>
<routes xmlns:xsi="http://www.w3.org/2001/XMLSchema-instance" xsi:noNamespaceSchemaLocation="http://sumo.dlr.de/xsd/routes_file.xsd">
    <vType id="urban_car" accel="2.0" decel="4.5" sigma="0.5" length="5" minGap="2.5" maxSpeed="13.89" guiShape="passenger" />
	<vehicle id="veh0" type="urban_car" depart="0.1" departLane="best" departSpeed="random">
        <route edges="-8062230#1 -8062231#1 -8062231#0 876048798 8074404#0 8074404#1 8074404#2 889128967 4600629#0 4600629#1 -8075726#2 8075749#0 8075749#1 8075749#2 -681627381" />
    </vehicle>
    <vehicle id="veh1" type="urban_car" depart="2.00" departLane="best" departSpeed="random">
        <route edges="144345883 -144345883 8062230#2 -8062229#1 -144345564#3" />
    </vehicle>
    <vehicle id="veh2" type="urban_car" depart="3.00" departLane="best" departSpeed="random">
        <route edges="227130538#0 227130538#1 227130538#2 218908625 473676059 668571595 145249467 965962639 145108766#0 145108766#1 227128938 4515636#0 4515636#1-AddedOnRampEdge 4515636#1 443794735#0 443794735#1 829900813#0 829900813#1 -142414019 -142414018#2 -144345564#1" />
    </vehicle>
    <vehicle id="veh3" type="urban_car" depart="3.00" departLane="best" departSpeed="random">
        <route edges="4497914#0 -4497914#0 227130538#0 227130538#1 227130538#2 218908625 473676059 668571595 145249467 965962639 145108766#0 145108766#1 227128938 4515636#0 4515636#1-AddedOnRampEdge 4515636#1 443794735#0 443794735#1 829900813#0 -728916028#9 -728916028#8 -728916028#7 -728916028#6 -299737737#5 -299737737#4 299737737#4" />
    </vehicle>
    <vehicle id="veh4" type="urban_car" depart="4.00" departLane="best" departSpeed="random">
        <route edges="299737739#4 299737739#5 728916028#2 728916028#3 728916028#4 728916028#5 728916028#6 728916028#7" />
    </vehicle>
    <vehicle id="veh5" type="urban_car" depart="4.00" departLane="best" departSpeed="random">
        <route edges="728916028#10 -728916028#10 -728916028#9 -728916028#8 -728916028#7 -728916028#6 -299737737#5 -299737737#4 -299737737#3 -299737737#2 -299737737#1 -299737737#0 4674300" />
    </vehicle>
    <vehicle id="veh6" type="urban_car" depart="5.00" departLane="best" departSpeed="random">
        <route edges="829900813#1 -142414019 -142414018#2 144345564#2 -8062231#0 876048798 8074404#0 8074404#1 8074404#2 889128967 4600629#0 4600629#1 -8075726#2" />
    </vehicle>
    <vehicle id="veh7" type="urban_car" depart="6.00" departLane="best" departSpeed="random">
        <route edges="-299737737#2 144345564#0 144345564#1 144345564#2 -8062231#0 8062231#0" />
    </vehicle>
    <vehicle id="veh8" type="urban_car" depart="12.00" departLane="best" departSpeed="random">
        <route edges="-6149028 142414018#1 144345564#2 8062231#1 8062230#1 144345883 -8062232" />
    </vehicle>
    <vehicle id="veh9" type="urban_car" depart="13.00" departLane="best" departSpeed="random">
        <route edges="-681627381 728916030#1 -218916584#1 -218916584#0 960850901 4600629#0 4600629#1 4600629#2 4600629#3 172223125#4 172223125#5 172223125#6 172223125#7 172223125#8 888039280#0 144347540#2 299737736#0 299737736#1 299737737#0 299737737#1 299737737#2 299737737#3 299737737#4 -299737737#4" />
    </vehicle>
    <vehicle id="veh11" type="urban_car" depart="14.00" departLane="best" departSpeed="random">
        <route edges="-8062229#0 1353087563#0 876048798 8074404#0 8074404#1 8074404#2 889128967 4600629#0 4600629#1 -8075726#2 8075749#0" />
    </vehicle>
    <vehicle id="veh12" type="urban_car" depart="16.00" departLane="best" departSpeed="random">
        <route edges="473676059 668571595 145249467 965962639 145108766#0 145108766#1 227128938 4515636#0 4515636#1-AddedOnRampEdge 4515636#1 443794735#0 443794735#1 829900813#0 728916028#10 728916028#11 -8062231#3 -8062231#2 -8062231#1 -8062231#0 876048798 8074404#0 8074404#1 8074397#0 -4674294#2" />
    </vehicle>
    <vehicle id="veh13" type="urban_car" depart="20.00" departLane="best" departSpeed="random">
        <route edges="-144345564#2 144345564#2 -8062231#0 876048798 8074404#0 -8074396#0" />
    </vehicle>
    <vehicle id="veh14" type="urban_car" depart="20.00" departLane="best" departSpeed="random">
        <route edges="-6149018#3 -6149018#2 -6149018#1 -6149018#0 144345564#1 144345564#2 -8062231#0 876048798 8074404#0 8074404#1 8074404#2 889128967 4600629#0 4600629#1 -8075726#2 8075749#0 8075749#1 8075749#2" />
    </vehicle>
    <vehicle id="veh15" type="urban_car" depart="21.00" departLane="best" departSpeed="random">
        <route edges="4515636#0 4515636#1-AddedOnRampEdge 4515636#1 443794735#0 443794735#1 829900813#0 728916028#10 728916028#11 -8062231#3 -8062231#2 -8062231#1 144345564#3" />
    </vehicle>
    <vehicle id="veh16" type="urban_car" depart="23.00" departLane="best" departSpeed="random">
        <route edges="-728916028#2 -299737739#5 -299737739#4 -299737739#3 299737739#3" />
    </vehicle>
    <vehicle id="veh17" type="urban_car" depart="23.00" departLane="best" departSpeed="random">
        <route edges="299737739#2 -299737739#2 -299737739#1 -299737739#0 4560272#0 4560272#1 -144347540#2 -144347540#1 888039281#0 -172223125#8 -172223125#7 8074404#0 8074396#1" />
    </vehicle>
    <vehicle id="veh18" type="urban_car" depart="24.00" departLane="best" departSpeed="random">
        <route edges="968498596 728916028#7 728916028#8 728916028#9 728916028#10 -29286152 29286152" />
    </vehicle>
    <vehicle id="veh19" type="urban_car" depart="25.00" departLane="best" departSpeed="random">
        <route edges="-144345883 -8062230#1 -8062231#1 -144345564#2 -144345564#1 -144345564#0 4674298#0 -299737739#1" />
    </vehicle>
    <vehicle id="veh20" type="urban_car" depart="27.00" departLane="best" departSpeed="random">
        <route edges="1341458334 8062229#0 8062229#1 -8062230#2 -8062230#1 8062231#2 8062231#3 -728916028#11 -728916028#10 -728916028#9 970093598" />
    </vehicle>
    <vehicle id="veh21" type="urban_car" depart="29.00" departLane="best" departSpeed="random">
        <route edges="4674298#0 -299737739#1 -299737739#0 4560272#0 4560272#1 -144347540#2 -144347540#1 888039281#0 -172223125#8 -172223125#7 8074404#0 8074404#1 8074404#2 960850902 218916584#0 8074398#0 4674294#2" />
    </vehicle>
    <vehicle id="veh22" type="urban_car" depart="30.00" departLane="best" departSpeed="random">
        <route edges="443794734#1 -829900812#1 -829900812#0 829900813#0 -728916028#9 -728916028#8 -728916028#7 -728916028#6 -728916028#5 -728916028#4 -728916028#3 -728916028#2 -299737739#5 -299737739#4 -299737739#3 -299737739#2" />
    </vehicle>
    <vehicle id="veh24" type="urban_car" depart="34.00" departLane="best" departSpeed="random">
        <route edges="443794734#1 -829900812#1 -829900812#0 -443794735#1 -443794735#0 443794580 960857069 443794581" />
    </vehicle>
    <vehicle id="veh25" type="urban_car" depart="34.00" departLane="best" departSpeed="random">
        <route edges="6149026#0 6149026#1 876048797 172223125#5 172223125#6 172223125#7 172223125#8 888039280#0 144347540#2 299737736#0" />
    </vehicle>
    <vehicle id="veh26" type="urban_car" depart="35.00" departLane="best" departSpeed="random">
        <route edges="-8074396#0 4600629#3 172223125#4 172223125#5 172223125#6 172223125#7 6149020 142414018#0 142414018#1 142414018#2 142414018#3 -142414019" />
    </vehicle>
    <vehicle id="veh27" type="urban_car" depart="37.00" departLane="best" departSpeed="random">
        <route edges="-172223125#2 172223125#2 172223125#3 172223125#4 172223125#5 172223125#6 172223125#7 172223125#8 888039280#0 144347540#2 299737736#0 299737736#1 299737737#0 299737737#1 299737737#2 -6149010#1 8062239#0" />
    </vehicle>
    <vehicle id="veh28" type="urban_car" depart="38.00" departLane="best" departSpeed="random">
        <route edges="227126223#0 298009824#0 306031987 -1008776821 -31100983#1 -31100983#0 -299737737#5 -299737737#4 -299737737#3 -299737737#2 -299737737#1 -299737737#0 4674300 4560272#0 4560272#1 -144347540#2 -144347540#1 888039281#0 -172223125#8 -172223125#7" />
    </vehicle>
    <vehicle id="veh29" type="urban_car" depart="39.00" departLane="best" departSpeed="random">
        <route edges="218916584#0 -218916584#0 960850901 4600629#0 4600629#1 4600629#2 4600629#3 172223125#4 172223125#5 172223125#6 172223125#7 172223125#8 888039280#0 144347540#2 299737736#0 299737736#1 299737737#0 299737737#1 299737737#2 299737737#3 299737737#4 299737737#5" />
    </vehicle>
    <vehicle id="veh31" type="urban_car" depart="40.00" departLane="best" departSpeed="random">
        <route edges="292876502#0 292876502#1 443794735#1 829900813#0 -728916028#9 -728916028#8 -728916028#7 -728916028#6 -299737737#5 -299737737#4 -299737737#3 -6149010#1 6149010#1" />
    </vehicle>
    <vehicle id="veh32" type="urban_car" depart="41.00" departLane="best" departSpeed="random">
        <route edges="-8062239#2 8062239#2 728916028#3 728916028#4 728916028#5 728916028#6 728916028#7 728916028#8 970093598" />
    </vehicle>
    <vehicle id="veh33" type="urban_car" depart="43.00" departLane="best" departSpeed="random">
        <route edges="-6149026#2 876048797 -172223125#4 -172223125#3 -172223125#2 -172223125#1 8066197#0 8066197#1 8075727 -8075727" />
    </vehicle>
    <vehicle id="veh34" type="urban_car" depart="44.00" departLane="best" departSpeed="random">
        <route edges="-6149026#0 876048792 172223125#3 172223125#4 172223125#5 172223125#6 172223125#7 172223125#8 -172223125#8" />
    </vehicle>
    <vehicle id="veh35" type="urban_car" depart="45.00" departLane="best" departSpeed="random">
        <route edges="8066197#2 -8066197#2 -8066197#1 -8066197#0 172223125#1 172223125#2 172223125#3 8062234#0 6149026#1 8062235#0 8062235#1 8062235#2 876048795 -8062232 8062232" />
    </vehicle>
    <vehicle id="veh36" type="urban_car" depart="45.00" departLane="best" departSpeed="random">
        <route edges="-728916028#10 728916028#10 728916028#11 -8062231#3 -8062231#2 -8062231#1 -8062231#0 876048798 8074404#0 8074404#1 8074404#2 889128967 4600629#0 4600629#1 4600629#2" />
    </vehicle>
    <vehicle id="veh37" type="urban_car" depart="46.00" departLane="best" departSpeed="random">
        <route edges="-443794735#0 443794735#0 443794735#1 829900813#0 728916028#10 728916028#11 -8062231#3 -8062231#2 -8062231#1 -8062231#0 876048798 8074404#0 8074404#1 8074404#2 889128967 4600629#0 4600629#1 -8075726#2 8075749#0" />
    </vehicle>
    <vehicle id="veh39" type="urban_car" depart="51.00" departLane="best" departSpeed="random">
        <route edges="144345564#0 144345564#1 144345564#2 -8062231#0 876048798 8074404#0 8074404#1 8074404#2 889128967 4600629#0 4600629#1 -8075726#2 8075749#0 -8075727" />
    </vehicle>
    <vehicle id="veh40" type="urban_car" depart="52.00" departLane="best" departSpeed="random">
        <route edges="-6149010#1 -6149010#0 -299737739#2 -299737739#1 -299737739#0 4560272#0 4560272#1 -144347540#2 -144347540#1 888039281#0 -172223125#8 -172223125#7 172223125#7" />
    </vehicle>
    <vehicle id="veh41" type="urban_car" depart="53.00" departLane="best" departSpeed="random">
        <route edges="-728916028#3 -728916028#2 -299737739#5 -299737739#4 -299737739#3 -299737739#2 -299737739#1 -299737739#0 4560272#0 4560272#1 -144347540#2 -144347540#1 888039281#0 -172223125#8 -172223125#7 -172223125#6 -172223125#5 -172223125#4 -172223125#3 -172223125#2 -172223125#1 8066197#0 8075726#0" />
    </vehicle>
    <vehicle id="veh42" type="urban_car" depart="55.00" departLane="best" departSpeed="random">
        <route edges="968498596 728916028#7 728916028#8 728916028#9 728916028#10 728916028#11 -8062231#3 -8062231#2 8062230#1 8062230#2 8062229#2" />
    </vehicle>
    <vehicle id="veh43" type="urban_car" depart="57.00" departLane="best" departSpeed="random">
        <route edges="227126223#0 298009824#0 306031987 -1008776821 -31100983#1 -31100983#0 -299737737#5 -299737737#4 -299737737#3 -299737737#2 144345564#0 144345564#1 144345564#2 -8062231#0 -1353087563#0 -6149026#2 -6149026#1 -6149026#0" />
    </vehicle>
    <vehicle id="veh44" type="urban_car" depart="58.00" departLane="best" departSpeed="random">
        <route edges="1008776821 -1008776821 -31100983#1 -31100983#0 -299737737#5 -299737737#4 -299737737#3 -299737737#2 -299737737#1 -299737737#0 4674300 4560272#0 4560272#1 -144347540#2 -144347540#1 888039281#0 -172223125#8 -172223125#7 8074404#0 8074404#1 8074404#2 960850902 960850901" />
    </vehicle>
</routes>