<?xml version="1.0" encoding="UTF-8"?>

<!-- generated on Mon Jul  7 09:17:18 2025 by Eclipse SUMO duarouter Version 1.8.0
<configuration xmlns:xsi="http://www.w3.org/2001/XMLSchema-instance" xsi:noNamespaceSchemaLocation="http://sumo.dlr.de/xsd/duarouterConfiguration.xsd">

    <input>
        <net-file value="cenarioC.net.xml"/>
        <route-files value="trips.trips.xml"/>
    </input>

    <output>
        <output-file value="cenarioC.rou.xml"/>
        <alternatives-output value="cenarioC.rou.alt.xml"/>
    </output>

    <time>
        <begin value="0"/>
        <end value="300"/>
    </time>

    <report>
        <no-warnings value="true"/>
        <ignore-errors value="true"/>
        <no-step-log value="true"/>
    </report>

</configuration>
-->

<routes xmlns:xsi="http://www.w3.org/2001/XMLSchema-instance" xsi:noNamespaceSchemaLocation="http://sumo.dlr.de/xsd/routes_file.xsd">
	<vType id="urban_car"
	       accel="2.0"
	       decel="4.5"
	       sigma="0.5"
	       length="5"
	       minGap="2.5"
	       maxSpeed="8.33"
	       guiShape="passenger" />
    <vehicle id="veh1" type="urban_car" depart="0.00" departLane="best" departSpeed="random">
        <route edges="424211755#6 424211755#7 369467063#9 369467063#10 369467063#11 424211551#6 424211551#7 424211551#8 424211551#9"/>
    </vehicle>
    <vehicle id="veh5" type="urban_car" depart="2.00" departLane="best" departSpeed="random">
        <route edges="230628519#10 493367006#1 493367006#2 424211755#2 424211755#3 424211755#4 230784028#5 230784028#6 230784028#7 230784028#8 230784028#9 8578569#0 8578569#1 8578569#2 8578569#3 8578569#4 424211549#12 424211549#13"/>
    </vehicle>
    <vehicle id="veh8" type="urban_car" depart="4.00" departLane="best" departSpeed="random">
        <route edges="230628537#0 230628537#1 230628519#0 230628519#1 230628519#2 424211549#9 424211549#10 424211549#11 8578569#5 8578569#6 1313069729 230628522#0 230628522#1 423987651#1 423987651#2 423987650 1313069730"/>
    </vehicle>
    <vehicle id="veh10" type="urban_car" depart="5.00" departLane="best" departSpeed="random">
        <route edges="424211755#4 230784028#5 230784028#6 230784028#7 230784028#8 230784028#9 8578569#0 8578569#1 8578569#2 8578569#3 8578569#4 8578569#5 8578569#6 1313069729 230628522#0 230628522#1 423987651#1 423987651#2 423987650"/>
    </vehicle>
    <vehicle id="veh11" type="urban_car" depart="5.00" departLane="best" departSpeed="random">
        <route edges="230784028#1 230784028#2 230784028#3 230784028#4 424211755#5 424211755#6 424211755#7 424211755#8 424211755#9 424211755#10 424211549#6 424211549#7 424211549#8 424211549#9 424211549#10 424211549#11 8578569#5 8578569#6 1313069729 230628522#0 230628522#1 423987651#1 423987651#2"/>
    </vehicle>
    <vehicle id="veh17" type="urban_car" depart="8.00" departLane="best" departSpeed="random">
        <route edges="230628523#0 230628523#1 230628519#0 230628519#1 230628519#2 424211549#9 424211549#10 424211549#11 8578569#5"/>
    </vehicle>
    <vehicle id="veh20" type="urban_car" depart="10.00" departLane="best" departSpeed="random">
        <route edges="424211549#8 230628519#3 230628519#4 230628519#5 369467063#6 369467063#7 369467063#8 369467063#9 369467063#10 369467063#11 369467063#12 369467063#13 369467063#14 -424211533#2 -424211533#1 -424211533#0 424211533#0"/>
    </vehicle>
    <vehicle id="veh26" type="urban_car" depart="13.00" departLane="best" departSpeed="random">
        <route edges="230628519#7 230628519#8 230628519#9 230628519#10 493367006#1 493367006#2 424211755#2 424211755#3 424211755#4 424211755#5 424211755#6 424211755#7 369467063#9 369467063#10 369467063#11 369467063#12 369467063#13 369467063#14 -424211533#2 424211533#2"/>
    </vehicle>
    <vehicle id="veh30" type="urban_car" depart="15.00" departLane="best" departSpeed="random">
        <route edges="424211549#5 424211549#6 424211549#7 424211549#8 424211549#9 424211549#10 424211549#11 8578569#5 8578569#6 1313069729 230628522#0 230628522#1 423987651#1 423987651#2 1313069731 16257561#0 16257561#1 471622249"/>
    </vehicle>
    <vehicle id="veh31" type="urban_car" depart="15.00" departLane="best" departSpeed="random">
        <route edges="1313066477 1313066476 230628537#0 230628537#1 230628519#0 230628519#1 230628519#2 230628519#3 230628519#4 230628519#5 369467063#6 369467063#7 369467063#8 369467063#9 369467063#10 369467063#11 424211551#6 424211551#7 424211551#8 230784028#2 230784028#3 230784028#4"/>
    </vehicle>
    <vehicle id="veh36" type="urban_car" depart="18.00" departLane="best" departSpeed="random">
        <route edges="942982967#0 942982967#1 1313070793 1313070792 230628533#0 230628533#1 184044492#0 184044492#1 184044492#2 504331803#0 504331803#1 72767350#0 72767350#1 72778053 72767317#0 72767317#1 72767317#2"/>
    </vehicle>
    <vehicle id="veh37" type="urban_car" depart="18.00" departLane="best" departSpeed="random">
        <route edges="369467063#8 424211755#8 424211755#9 424211755#10 424211549#6 424211549#7 424211549#8 424211549#9 424211549#10 424211549#11 8578569#5 8578569#6 1313069729 230628522#0 230628522#1 423987651#1 423987651#2 423987650 1313069730 1313067012 230628517#0"/>
    </vehicle>
    <vehicle id="veh40" type="urban_car" depart="20.00" departLane="best" departSpeed="random">
        <route edges="38630650#5 471622245"/>
    </vehicle>
    <vehicle id="veh42" type="urban_car" depart="21.00" departLane="best" departSpeed="random">
        <route edges="8578569#6 1313069729 230628522#0 230628522#1 423987651#1 423987651#2 423987650 1313069730 1313067012 230628517#0 230628517#1 230628518#0 230628518#1 230628518#2 230628518#3 72767317#3"/>
    </vehicle>
    <vehicle id="veh43" type="urban_car" depart="21.00" departLane="best" departSpeed="random">
        <route edges="230628532#0 230628532#1 424211533#0 -424211533#0 424211549#0 424211549#1 424211549#2 424211549#3 424211549#4 424211549#5 424211755#11 424211755#12 1313066477 230628528#0 230628528#1 230628517#2 230628517#3 1313065307"/>
    </vehicle>
    <vehicle id="veh47" type="urban_car" depart="23.00" departLane="best" departSpeed="random">
        <route edges="230628523#0 230628523#1 230628519#0 230628519#1 230628519#2 424211549#9 424211549#10 424211549#11 8578569#5 8578569#6 1313069729 230628522#0 230628522#1 423987651#1 423987651#2 1313069731 16257561#0 16257561#1 471622249 471622253#1 38630652#0 38630652#1 38630652#2 504331803#0 504331803#1 72767350#0 72767350#1 72778053 72767317#0 72767317#1"/>
    </vehicle>
    <vehicle id="veh48" type="urban_car" depart="24.00" departLane="best" departSpeed="random">
        <route edges="230628519#0 230628519#1 230628519#2 424211549#9 424211549#10 424211549#11 8578569#5 8578569#6 1313069729 230628522#0 230628522#1 423987651#1 423987651#2 423987650"/>
    </vehicle>
    <vehicle id="veh50" type="urban_car" depart="25.00" departLane="best" departSpeed="random">
        <route edges="424211551#1 424211551#2 424211549#3 424211549#4 424211549#5 424211549#6 424211549#7 424211549#8 230628519#3 230628519#4 230628519#5 369467063#6 369467063#7 369467063#8 369467063#9 369467063#10 369467063#11"/>
    </vehicle>
    <vehicle id="veh52" type="urban_car" depart="26.00" departLane="best" departSpeed="random">
        <route edges="424211549#1 424211549#2 424211549#3 424211549#4 424211549#5 424211755#11 424211755#12 1313066477 1313066476 230628537#0 230628537#1 230628519#0 230628519#1 230628519#2"/>
    </vehicle>
    <vehicle id="veh54" type="urban_car" depart="27.00" departLane="best" departSpeed="random">
        <route edges="8578569#0 8578569#1 8578569#2 8578569#3 8578569#4 8578569#5 8578569#6 1313069729 230628522#0 230628522#1 423987651#1 423987651#2 1313069731 16257561#0 16257561#1 471622249 471622253#1 38630652#0 38630652#1 38630652#2 504331803#0 504331803#1 504331803#2 504331803#3 504331803#4 504331803#5 504331803#6 504331803#7"/>
    </vehicle>
    <vehicle id="veh55" type="urban_car" depart="27.00" departLane="best" departSpeed="random">
        <route edges="230628519#5 369467063#6 369467063#7 369467063#8 369467063#9 369467063#10 369467063#11 424211551#6 424211551#7"/>
    </vehicle>
    <vehicle id="veh59" type="urban_car" depart="29.00" departLane="best" departSpeed="random">
        <route edges="244821385#1 424211549#0 424211549#1 424211549#2 424211549#3 424211549#4 424211549#5 424211549#6 424211549#7 424211549#8 230628519#3 230628519#4 230628519#5 230628519#6 230628519#7 230628519#8 230784028#8 230784028#9 8578569#0 8578569#1 369467063#2 369467063#3 369467063#4 369467063#5"/>
    </vehicle>
    <vehicle id="veh61" type="urban_car" depart="30.00" departLane="best" departSpeed="random">
        <route edges="230784028#7 230628519#9 230628519#10 493367006#1 493367006#2 424211755#2 424211755#3 424211755#4 424211755#5 424211755#6 424211755#7 424211755#8 424211755#9 424211755#10 424211755#11 424211755#12 1313066477 1313066476 230628537#0 230628537#1"/>
    </vehicle>
    <vehicle id="veh62" type="urban_car" depart="31.00" departLane="best" departSpeed="random">
        <route edges="230628519#8 230628519#9 230628519#10 493367006#1 493367006#2 424211755#2 424211755#3 424211755#4 424211755#5 424211755#6 424211755#7 424211755#8 424211755#9 424211755#10 424211755#11 424211755#12 1313066477 230628528#0 230628528#1 230628517#2 230628517#3"/>
    </vehicle>
    <vehicle id="veh68" type="urban_car" depart="34.00" departLane="best" departSpeed="random">
        <route edges="230628519#1 230628519#2 230628519#3 230628519#4 230628519#5 230628519#6 230628519#7 230628519#8 230784028#8 230784028#9"/>
    </vehicle>
    <vehicle id="veh74" type="urban_car" depart="37.00" departLane="best" departSpeed="random">
        <route edges="424211755#8 424211755#9 424211755#10 424211755#11 424211755#12 1313066477 230628528#0 230628528#1 230628517#2 230628517#3 1313065307"/>
    </vehicle>
    <vehicle id="veh75" type="urban_car" depart="37.00" departLane="best" departSpeed="random">
        <route edges="369467063#9 369467063#10 369467063#11 369467063#12 369467063#13 369467063#14 -424211533#2 -424211533#1 -424211533#0 424211549#0 424211549#1 424211549#2 424211549#3 424211549#4 424211549#5 424211549#6 424211549#7 424211549#8 424211549#9 424211549#10 424211549#11 8578569#5 8578569#6 1313069729 230628522#0 230628522#1 423987651#1 423987651#2 1313069731 16257561#0 16257561#1 471622249 471622253#1 38630652#0 38630652#1 38630652#2 504331803#0 504331803#1 504331803#2 504331803#3 504331803#4 504331803#5 504331803#6"/>
    </vehicle>
    <vehicle id="veh78" type="urban_car" depart="39.00" departLane="best" departSpeed="random">
        <route edges="16257538#1 16257538#2 471622251 38630652#0 38630652#1 38630652#2 504331803#0 504331803#1 72767350#0"/>
    </vehicle>
    <vehicle id="veh82" type="urban_car" depart="41.00" departLane="best" departSpeed="random">
        <route edges="230784028#5 230784028#6 230784028#7 230628519#9 230628519#10 493367006#1 493367006#2 424211755#2 424211755#3 424211755#4 424211755#5 424211755#6 424211755#7 369467063#9 369467063#10 369467063#11 424211551#6 424211551#7 424211551#8"/>
    </vehicle>
    <vehicle id="veh85" type="urban_car" depart="42.00" departLane="best" departSpeed="random">
        <route edges="1313067013 230628523#0 230628523#1 230628519#0"/>
    </vehicle>
    <vehicle id="veh86" type="urban_car" depart="43.00" departLane="best" departSpeed="random">
        <route edges="933438108 38630650#3 38630650#4 38630650#5 471622247 471622253#0 471622253#1 38630652#0 38630652#1 38630652#2 504331803#0 504331803#1 72767350#0 72767350#1 72778053 72767317#0 72767317#1 72767317#2 72767317#3"/>
    </vehicle>
    <vehicle id="veh87" type="urban_car" depart="43.00" departLane="best" departSpeed="random">
        <route edges="230628541#3 1313066476 230628537#0 230628537#1 230628519#0 230628519#1 230628519#2 424211549#9 424211549#10 424211549#11 8578569#5 8578569#6 1313069729 230628522#0 230628522#1 423987651#1 423987651#2 1313069731 16257561#0 16257561#1 471622249 471622253#1 38630652#0 38630652#1 38630652#2 -184044492#2 -184044492#1 -184044492#0 184044492#0"/>
    </vehicle>
    <vehicle id="veh88" type="urban_car" depart="44.00" departLane="best" departSpeed="random">
        <route edges="424211755#1 424211755#2 424211755#3 424211755#4 424211755#5 424211755#6 424211755#7 369467063#9 369467063#10 369467063#11 369467063#12 369467063#13 369467063#14 -424211533#2 -424211533#1 -424211533#0 424211549#0 424211549#1 424211549#2 424211549#3 424211549#4 424211549#5"/>
    </vehicle>
    <vehicle id="veh91" type="urban_car" depart="45.00" departLane="best" departSpeed="random">
        <route edges="16257589#0 16257589#4 16257589#5 16257589#6 16257589#7 72767357 72767353#0 72767353#1 1313067013 230628523#0 230628523#1 230628537#2 230628537#3 230628537#4 1313069728 230628536#0 230628536#1 230628536#2 1313097198#0 1313097198#1"/>
    </vehicle>
    <vehicle id="veh93" type="urban_car" depart="46.00" departLane="best" departSpeed="random">
        <route edges="424211755#12 1313066477 230628528#0 230628528#1 230628518#0 230628518#1 230628518#2"/>
    </vehicle>
    <vehicle id="veh97" type="urban_car" depart="48.00" departLane="best" departSpeed="random">
        <route edges="424211549#8 424211549#9 424211549#10 424211549#11 8578569#5 8578569#6 1313069729 230628522#0"/>
    </vehicle>
    <vehicle id="veh100" type="urban_car" depart="50.00" departLane="best" departSpeed="random">
        <route edges="38630652#1 38630652#2 504331803#0 504331803#1"/>
    </vehicle>
    <vehicle id="veh103" type="urban_car" depart="51.00" departLane="best" departSpeed="random">
        <route edges="72767357 72767353#0 72767353#1 1313067013 1313067012 230628517#0 230628517#1 230628518#0 230628518#1 230628518#2 230628518#3"/>
    </vehicle>
    <vehicle id="veh105" type="urban_car" depart="52.00" departLane="best" departSpeed="random">
        <route edges="230784028#8 230784028#9 8578569#0 8578569#1 369467063#2 369467063#3 369467063#4 369467063#5 369467063#6 369467063#7 369467063#8 424211755#8 424211755#9 424211755#10 424211549#6 424211549#7 424211549#8"/>
    </vehicle>
    <vehicle id="veh108" type="urban_car" depart="54.00" departLane="best" departSpeed="random">
        <route edges="424211755#6 424211755#7 424211755#8 424211755#9 424211755#10 424211755#11 424211755#12 1313066477 1313066476 230628537#0 230628537#1 230628537#2 230628537#3 230628537#4 1313069728 230628536#0 230628536#1 230628536#2"/>
    </vehicle>
    <vehicle id="veh112" type="urban_car" depart="56.00" departLane="best" departSpeed="random">
        <route edges="493367006#1 493367006#2 424211755#2 424211755#3 424211755#4 230784028#5 230784028#6 230784028#7 230784028#8 230784028#9 8578569#0 8578569#1 369467063#2 369467063#3 369467063#4"/>
    </vehicle>
    <vehicle id="veh115" type="urban_car" depart="57.00" departLane="best" departSpeed="random">
        <route edges="942982968#2 942982968#3 942982968#4 942982967#0 942982967#1 1313070793 230628524#0"/>
    </vehicle>
    <vehicle id="veh120" type="urban_car" depart="60.00" departLane="best" departSpeed="random">
        <route edges="230628532#1 424211533#0 -424211533#0 424211549#0 424211549#1 424211549#2 424211549#3 424211549#4"/>
    </vehicle>
    <vehicle id="veh121" type="urban_car" depart="60.00" departLane="best" departSpeed="random">
        <route edges="230784028#3 230784028#4 424211755#5 424211755#6 424211755#7 424211755#8 424211755#9 424211755#10 424211549#6 424211549#7 424211549#8 424211549#9 424211549#10"/>
    </vehicle>
    <vehicle id="veh122" type="urban_car" depart="61.00" departLane="best" departSpeed="random">
        <route edges="424211755#10 424211755#11 424211755#12 1313066477 230628528#0 230628528#1 230628517#2 230628517#3 15069448 -15069448"/>
    </vehicle>
    <vehicle id="veh125" type="urban_car" depart="62.00" departLane="best" departSpeed="random">
        <route edges="424211551#3 424211551#4 424211551#5 369467063#12 369467063#13 369467063#14 -424211533#2 -424211533#1 -424211533#0 424211549#0 424211549#1 424211549#2 424211549#3 424211549#4 424211549#5 424211755#11 424211755#12 1313066477 1313066476 230628537#0 230628537#1 230628537#2 230628537#3 230628537#4 1313069728 230628536#0 230628536#1 230628536#2"/>
    </vehicle>
    <vehicle id="veh127" type="urban_car" depart="63.00" departLane="best" departSpeed="random">
        <route edges="230628532#0 230628532#1 424211533#0 424211533#1 424211533#2 230784038#0"/>
    </vehicle>
    <vehicle id="veh132" type="urban_car" depart="66.00" departLane="best" departSpeed="random">
        <route edges="424211533#2 -424211533#2 -424211533#1 -424211533#0 424211549#0 424211549#1 424211549#2 424211551#3 424211551#4"/>
    </vehicle>
    <vehicle id="veh137" type="urban_car" depart="68.00" departLane="best" departSpeed="random">
        <route edges="424211551#5 424211551#6 424211551#7 424211551#8 230784028#2 230784028#3 230784028#4 230784028#5 230784028#6 230784028#7 230628519#9 230628519#10 230628519#11"/>
    </vehicle>
    <vehicle id="veh138" type="urban_car" depart="69.00" departLane="best" departSpeed="random">
        <route edges="-230628532#1 230628532#1 424211533#0 -424211533#0 424211549#0 424211549#1 424211549#2 424211549#3 424211549#4 424211549#5 424211549#6 424211549#7 424211549#8 230628519#3 230628519#4 230628519#5 230628519#6"/>
    </vehicle>
    <vehicle id="veh140" type="urban_car" depart="70.00" departLane="best" departSpeed="random">
        <route edges="424211549#6 424211549#7 424211549#8 230628519#3 230628519#4 230628519#5 369467063#6 369467063#7 369467063#8 424211755#8 424211755#9 424211755#10 424211755#11 424211755#12 1313066477 230628528#0 230628528#1 230628518#0"/>
    </vehicle>
    <vehicle id="veh145" type="urban_car" depart="72.00" departLane="best" departSpeed="random">
        <route edges="369467063#11 369467063#12 369467063#13 369467063#14 -424211533#2 -424211533#1 -424211533#0 424211549#0 424211549#1 424211549#2 424211549#3 424211549#4 424211549#5 424211549#6 424211549#7 424211549#8 424211549#9 424211549#10 424211549#11 8578569#5 8578569#6 1313069729 230628522#0 230628522#1 423987651#1 423987651#2 1313069731 16257561#0 16257561#1 471622249 471622253#1 471622252"/>
    </vehicle>
    <vehicle id="veh147" type="urban_car" depart="73.00" departLane="best" departSpeed="random">
        <route edges="72767353#1 1313067013 230628523#0 230628523#1 230628519#0 230628519#1 230628519#2 230628519#3 230628519#4 230628519#5 369467063#6 369467063#7 369467063#8 424211755#8 424211755#9 424211755#10 424211549#6"/>
    </vehicle>
    <vehicle id="veh148" type="urban_car" depart="74.00" departLane="best" departSpeed="random">
        <route edges="369467063#9 369467063#10 369467063#11 369467063#12 369467063#13 369467063#14 -424211533#2 -424211533#1 -424211533#0 424211549#0 424211549#1 424211549#2 424211549#3 424211549#4 424211549#5 424211549#6 424211549#7 424211549#8 424211549#9 424211549#10 424211549#11 8578569#5 8578569#6 1313069729 230628522#0 230628522#1 423987651#1 423987651#2 1313069731 16257561#0 16257561#1 471622249 471622253#1 38630652#0 38630652#1 38630652#2 504331803#0"/>
    </vehicle>
    <vehicle id="veh149" type="urban_car" depart="74.00" departLane="best" departSpeed="random">
        <route edges="72767357 72767353#0 72767353#1 1313067013 230628523#0 230628523#1 230628519#0 230628519#1 230628519#2 230628519#3 230628519#4 230628519#5 369467063#6 369467063#7 369467063#8 369467063#9 369467063#10 369467063#11 369467063#12 369467063#13 369467063#14 426511883#0"/>
    </vehicle>
</routes>
