<?xml version="1.0" encoding="UTF-8"?>

<!-- generated on Mon Jun  9 19:35:00 2025 by Eclipse SUMO netconvert Version 1.8.0
<configuration xmlns:xsi="http://www.w3.org/2001/XMLSchema-instance" xsi:noNamespaceSchemaLocation="http://sumo.dlr.de/xsd/netconvertConfiguration.xsd">

    <input>
        <osm-files value="map.osm"/>
    </input>

    <output>
        <output-file value="cenarioA.net.xml"/>
    </output>

    <projection>
        <proj.utm value="true"/>
    </projection>

    <processing>
        <geometry.remove value="true"/>
    </processing>

    <tls_building>
        <tls.discard-simple value="true"/>
    </tls_building>

    <ramp_guessing>
        <ramps.guess value="true"/>
    </ramp_guessing>

    <report>
        <aggregate-warnings value="5"/>
    </report>

</configuration>
-->

<net version="1.6" junctionCornerDetail="5" limitTurnSpeed="5.50" xmlns:xsi="http://www.w3.org/2001/XMLSchema-instance" xsi:noNamespaceSchemaLocation="http://sumo.dlr.de/xsd/net_file.xsd">

    <location netOffset="-607707.51,2198839.04" convBoundary="0.00,0.00,2657.68,3330.25" origBoundary="-43.971286,-19.882664,-43.945905,-19.845135" projParameter="+proj=utm +zone=23 +ellps=WGS84 +datum=WGS84 +units=m +no_defs"/>

    <type id="highway.bridleway" priority="1" numLanes="1" speed="2.78" allow="pedestrian" oneway="1" width="2.00"/>
    <type id="highway.bus_guideway" priority="1" numLanes="1" speed="27.78" allow="bus" oneway="1"/>
    <type id="highway.cycleway" priority="1" numLanes="1" speed="8.33" allow="bicycle" oneway="0" width="1.00"/>
    <type id="highway.footway" priority="1" numLanes="1" speed="2.78" allow="pedestrian" oneway="1" width="2.00"/>
    <type id="highway.ford" priority="1" numLanes="1" speed="2.78" allow="army" oneway="0"/>
    <type id="highway.living_street" priority="2" numLanes="1" speed="2.78" disallow="tram rail_urban rail rail_electric rail_fast ship" oneway="0"/>
    <type id="highway.motorway" priority="14" numLanes="2" speed="39.44" allow="private emergency authority army vip passenger hov taxi bus coach delivery truck trailer motorcycle evehicle custom1 custom2" oneway="1"/>
    <type id="highway.motorway_link" priority="9" numLanes="1" speed="22.22" allow="private emergency authority army vip passenger hov taxi bus coach delivery truck trailer motorcycle evehicle custom1 custom2" oneway="1"/>
    <type id="highway.path" priority="1" numLanes="1" speed="2.78" allow="pedestrian bicycle" oneway="0" width="2.00"/>
    <type id="highway.pedestrian" priority="1" numLanes="1" speed="2.78" allow="pedestrian" oneway="1" width="2.00"/>
    <type id="highway.primary" priority="12" numLanes="2" speed="27.78" disallow="tram rail_urban rail rail_electric rail_fast ship" oneway="0"/>
    <type id="highway.primary_link" priority="7" numLanes="1" speed="22.22" disallow="tram rail_urban rail rail_electric rail_fast ship" oneway="0"/>
    <type id="highway.raceway" priority="15" numLanes="2" speed="83.33" allow="vip" oneway="0"/>
    <type id="highway.residential" priority="3" numLanes="1" speed="13.89" disallow="tram rail_urban rail rail_electric rail_fast ship" oneway="0"/>
    <type id="highway.secondary" priority="11" numLanes="1" speed="27.78" disallow="tram rail_urban rail rail_electric rail_fast ship" oneway="0"/>
    <type id="highway.secondary_link" priority="6" numLanes="1" speed="22.22" disallow="tram rail_urban rail rail_electric rail_fast ship" oneway="0"/>
    <type id="highway.service" priority="1" numLanes="1" speed="5.56" allow="pedestrian delivery bicycle" oneway="0"/>
    <type id="highway.stairs" priority="1" numLanes="1" speed="1.39" allow="pedestrian" oneway="1" width="2.00"/>
    <type id="highway.step" priority="1" numLanes="1" speed="1.39" allow="pedestrian" oneway="1" width="2.00"/>
    <type id="highway.steps" priority="1" numLanes="1" speed="1.39" allow="pedestrian" oneway="1" width="2.00"/>
    <type id="highway.tertiary" priority="10" numLanes="1" speed="22.22" disallow="tram rail_urban rail rail_electric rail_fast ship" oneway="0"/>
    <type id="highway.tertiary_link" priority="5" numLanes="1" speed="22.22" disallow="tram rail_urban rail rail_electric rail_fast ship" oneway="0"/>
    <type id="highway.track" priority="1" numLanes="1" speed="5.56" allow="pedestrian motorcycle moped bicycle" oneway="0"/>
    <type id="highway.trunk" priority="13" numLanes="2" speed="27.78" disallow="pedestrian bicycle tram rail_urban rail rail_electric rail_fast ship" oneway="0"/>
    <type id="highway.trunk_link" priority="8" numLanes="1" speed="22.22" disallow="pedestrian bicycle tram rail_urban rail rail_electric rail_fast ship" oneway="0"/>
    <type id="highway.unclassified" priority="4" numLanes="1" speed="13.89" disallow="tram rail_urban rail rail_electric rail_fast ship" oneway="0"/>
    <type id="highway.unsurfaced" priority="1" numLanes="1" speed="8.33" disallow="tram rail_urban rail rail_electric rail_fast ship" oneway="0"/>
    <type id="railway.highspeed" priority="21" numLanes="1" speed="69.44" allow="rail_fast" oneway="1"/>
    <type id="railway.light_rail" priority="19" numLanes="1" speed="27.78" allow="rail_urban" oneway="1"/>
    <type id="railway.preserved" priority="16" numLanes="1" speed="27.78" allow="rail" oneway="1"/>
    <type id="railway.rail" priority="20" numLanes="1" speed="44.44" allow="rail" oneway="1"/>
    <type id="railway.subway" priority="18" numLanes="1" speed="27.78" allow="rail_urban" oneway="1"/>
    <type id="railway.tram" priority="17" numLanes="1" speed="13.89" allow="tram" oneway="1"/>

    <edge id=":12856793102_0" function="internal">
        <lane id=":12856793102_0_0" index="0" disallow="tram rail_urban rail rail_electric rail_fast ship" speed="13.89" length="3.79" shape="1229.44,2844.47 1225.81,2843.39"/>
    </edge>
    <edge id=":12856793102_1" function="internal">
        <lane id=":12856793102_1_0" index="0" disallow="tram rail_urban rail rail_electric rail_fast ship" speed="3.65" length="2.34" shape="1229.44,2844.47 1228.50,2843.37 1228.33,2842.50"/>
    </edge>
    <edge id=":12856793102_4" function="internal">
        <lane id=":12856793102_4_0" index="0" disallow="tram rail_urban rail rail_electric rail_fast ship" speed="3.65" length="2.34" shape="1228.33,2842.50 1228.93,2841.83 1230.30,2841.38"/>
    </edge>
    <edge id=":12856793102_2" function="internal">
        <lane id=":12856793102_2_0" index="0" disallow="tram rail_urban rail rail_electric rail_fast ship" speed="13.89" length="3.65" shape="1226.80,2840.34 1230.30,2841.38"/>
    </edge>
    <edge id=":12856793102_3" function="internal">
        <lane id=":12856793102_3_0" index="0" disallow="tram rail_urban rail rail_electric rail_fast ship" speed="3.65" length="2.34" shape="1226.80,2840.34 1227.69,2841.47 1227.83,2842.36"/>
    </edge>
    <edge id=":12856793102_5" function="internal">
        <lane id=":12856793102_5_0" index="0" disallow="tram rail_urban rail rail_electric rail_fast ship" speed="3.65" length="2.34" shape="1227.83,2842.36 1227.20,2843.00 1225.81,2843.39"/>
    </edge>
    <edge id=":12856793104_0" function="internal">
        <lane id=":12856793104_0_0" index="0" disallow="tram rail_urban rail rail_electric rail_fast ship" speed="13.89" length="2.89" shape="1262.76,2871.23 1260.22,2872.62"/>
    </edge>
    <edge id=":12856793104_1" function="internal">
        <lane id=":12856793104_1_0" index="0" disallow="tram rail_urban rail rail_electric rail_fast ship" speed="3.65" length="2.34" shape="1262.76,2871.23 1261.32,2871.10 1260.59,2870.59"/>
    </edge>
    <edge id=":12856793104_4" function="internal">
        <lane id=":12856793104_4_0" index="0" disallow="tram rail_urban rail rail_electric rail_fast ship" speed="3.65" length="2.34" shape="1260.59,2870.59 1260.55,2869.70 1261.22,2868.42"/>
    </edge>
    <edge id=":12856793104_2" function="internal">
        <lane id=":12856793104_2_0" index="0" disallow="tram rail_urban rail rail_electric rail_fast ship" speed="13.89" length="2.89" shape="1258.68,2869.81 1261.22,2868.42"/>
    </edge>
    <edge id=":12856793104_3" function="internal">
        <lane id=":12856793104_3_0" index="0" disallow="tram rail_urban rail rail_electric rail_fast ship" speed="3.65" length="2.34" shape="1258.68,2869.81 1260.12,2869.94 1260.86,2870.45"/>
    </edge>
    <edge id=":12856793104_5" function="internal">
        <lane id=":12856793104_5_0" index="0" disallow="tram rail_urban rail rail_electric rail_fast ship" speed="3.65" length="2.34" shape="1260.86,2870.45 1260.89,2871.34 1260.22,2872.62"/>
    </edge>
    <edge id=":12856793106_0" function="internal">
        <lane id=":12856793106_0_0" index="0" disallow="tram rail_urban rail rail_electric rail_fast ship" speed="22.22" length="10.01" shape="1251.65,2854.97 1252.04,2857.95 1252.22,2860.00 1252.50,2862.04 1253.19,2864.95"/>
        <lane id=":12856793106_0_1" index="1" disallow="tram rail_urban rail rail_electric rail_fast ship" speed="22.22" length="10.01" shape="1248.49,2855.49 1248.87,2858.40 1249.03,2860.42 1249.29,2862.42 1249.96,2865.27"/>
    </edge>
    <edge id=":12856793107_0" function="internal">
        <lane id=":12856793107_0_0" index="0" disallow="tram rail_urban rail rail_electric rail_fast ship" speed="22.22" length="8.90" shape="1236.89,2860.12 1235.53,2851.43"/>
        <lane id=":12856793107_0_1" index="1" disallow="tram rail_urban rail rail_electric rail_fast ship" speed="22.22" length="8.90" shape="1240.07,2859.75 1238.68,2850.86"/>
    </edge>
    <edge id=":1578928008_0" function="internal">
        <lane id=":1578928008_0_0" index="0" disallow="tram rail_urban rail rail_electric rail_fast ship" speed="13.89" length="14.38" shape="1857.05,2853.63 1843.78,2859.17"/>
    </edge>
    <edge id=":1578928008_1" function="internal">
        <lane id=":1578928008_1_0" index="0" disallow="tram rail_urban rail rail_electric rail_fast ship" speed="8.10" length="5.85" shape="1857.05,2853.63 1853.32,2854.57 1851.33,2854.28"/>
    </edge>
    <edge id=":1578928008_2" function="internal">
        <lane id=":1578928008_2_0" index="0" disallow="tram rail_urban rail rail_electric rail_fast ship" speed="3.65" length="2.34" shape="1857.05,2853.63 1855.63,2853.35 1854.96,2852.76"/>
    </edge>
    <edge id=":1578928008_9" function="internal">
        <lane id=":1578928008_9_0" index="0" disallow="tram rail_urban rail rail_electric rail_fast ship" speed="8.10" length="8.37" shape="1851.33,2854.28 1850.14,2854.10 1847.51,2852.21 1845.42,2848.89"/>
    </edge>
    <edge id=":1578928008_10" function="internal">
        <lane id=":1578928008_10_0" index="0" disallow="tram rail_urban rail rail_electric rail_fast ship" speed="3.65" length="2.34" shape="1854.96,2852.76 1855.02,2851.87 1855.82,2850.67"/>
    </edge>
    <edge id=":1578928008_3" function="internal">
        <lane id=":1578928008_3_0" index="0" disallow="tram rail_urban rail rail_electric rail_fast ship" speed="6.62" length="9.18" shape="1848.34,2847.57 1849.69,2849.73 1851.39,2850.96 1853.43,2851.28 1855.82,2850.67"/>
    </edge>
    <edge id=":1578928008_4" function="internal">
        <lane id=":1578928008_4_0" index="0" disallow="tram rail_urban rail rail_electric rail_fast ship" speed="7.95" length="14.29" shape="1848.34,2847.57 1849.43,2851.35 1849.03,2854.54 1847.15,2857.15 1843.78,2859.17"/>
    </edge>
    <edge id=":1578928008_5" function="internal">
        <lane id=":1578928008_5_0" index="0" disallow="tram rail_urban rail rail_electric rail_fast ship" speed="3.65" length="4.67" shape="1848.34,2847.57 1848.10,2849.00 1847.54,2849.69 1846.64,2849.65 1845.42,2848.89"/>
    </edge>
    <edge id=":1578928008_6" function="internal">
        <lane id=":1578928008_6_0" index="0" disallow="tram rail_urban rail rail_electric rail_fast ship" speed="6.45" length="9.03" shape="1842.54,2856.22 1844.67,2854.94 1845.86,2853.29 1846.11,2851.28 1845.42,2848.89"/>
    </edge>
    <edge id=":1578928008_7" function="internal">
        <lane id=":1578928008_7_0" index="0" disallow="tram rail_urban rail rail_electric rail_fast ship" speed="13.89" length="14.40" shape="1842.54,2856.22 1855.82,2850.67"/>
    </edge>
    <edge id=":1578928008_8" function="internal">
        <lane id=":1578928008_8_0" index="0" disallow="tram rail_urban rail rail_electric rail_fast ship" speed="3.65" length="2.34" shape="1842.54,2856.22 1843.95,2856.49 1844.63,2857.07"/>
    </edge>
    <edge id=":1578928008_11" function="internal">
        <lane id=":1578928008_11_0" index="0" disallow="tram rail_urban rail rail_electric rail_fast ship" speed="3.65" length="2.34" shape="1844.63,2857.07 1844.57,2857.97 1843.78,2859.17"/>
    </edge>
    <edge id=":1578944486_0" function="internal">
        <lane id=":1578944486_0_0" index="0" disallow="tram rail_urban rail rail_electric rail_fast ship" speed="7.55" length="5.63" shape="2507.46,2505.50 2506.86,2504.21 2506.02,2503.12 2504.96,2502.24 2503.67,2501.57"/>
    </edge>
    <edge id=":1578944486_1" function="internal">
        <lane id=":1578944486_1_0" index="0" disallow="tram rail_urban rail rail_electric rail_fast ship" speed="11.20" length="8.21" shape="2511.61,2496.58 2510.76,2498.88 2510.12,2500.53 2509.94,2502.17 2510.48,2504.45"/>
    </edge>
    <edge id=":1578944486_2" function="internal">
        <lane id=":1578944486_2_0" index="0" disallow="tram rail_urban rail rail_electric rail_fast ship" speed="6.87" length="10.87" shape="2511.61,2496.58 2510.28,2499.63 2508.51,2501.47 2506.31,2502.12 2503.67,2501.57"/>
    </edge>
    <edge id=":1578944502_0" function="internal">
        <lane id=":1578944502_0_0" index="0" disallow="tram rail_urban rail rail_electric rail_fast ship" speed="7.65" length="10.22" shape="2319.25,2705.85 2316.30,2705.35 2313.80,2705.63 2311.77,2706.69 2310.19,2708.53"/>
    </edge>
    <edge id=":1578944502_1" function="internal">
        <lane id=":1578944502_1_0" index="0" disallow="tram rail_urban rail rail_electric rail_fast ship" speed="3.65" length="4.67" shape="2319.25,2705.85 2318.31,2704.75 2318.14,2703.87 2318.74,2703.21 2320.11,2702.76"/>
    </edge>
    <edge id=":1578944502_2" function="internal">
        <lane id=":1578944502_2_0" index="0" disallow="tram rail_urban rail rail_electric rail_fast ship" speed="6.16" length="9.05" shape="2316.99,2695.85 2316.22,2698.28 2316.48,2700.24 2317.78,2701.73 2320.11,2702.76"/>
    </edge>
    <edge id=":1578944502_3" function="internal">
        <lane id=":1578944502_3_0" index="0" disallow="tram rail_urban rail rail_electric rail_fast ship" speed="22.22" length="14.25" shape="2316.99,2695.85 2315.13,2699.70 2313.81,2702.31 2312.38,2704.86 2310.19,2708.53"/>
        <lane id=":1578944502_3_1" index="1" disallow="tram rail_urban rail rail_electric rail_fast ship" speed="22.22" length="14.25" shape="2314.10,2694.46 2312.29,2698.23 2311.00,2700.78 2309.60,2703.28 2307.45,2706.87"/>
    </edge>
    <edge id=":1585528036_0" function="internal">
        <lane id=":1585528036_0_0" index="0" disallow="pedestrian bicycle tram rail_urban rail rail_electric rail_fast ship" speed="7.60" length="4.77" shape="1227.76,2563.60 1228.93,2562.88 1229.57,2562.16 1229.97,2561.22 1230.43,2559.88"/>
    </edge>
    <edge id=":1585528036_1" function="internal">
        <lane id=":1585528036_1_0" index="0" disallow="pedestrian bicycle tram rail_urban rail rail_electric rail_fast ship" speed="16.67" length="4.91" shape="1231.21,2565.58 1231.73,2564.16 1232.26,2563.26 1232.82,2562.36 1233.44,2560.97"/>
        <lane id=":1585528036_1_1" index="1" disallow="pedestrian bicycle tram rail_urban rail rail_electric rail_fast ship" speed="16.67" length="4.91" shape="1234.29,2566.46 1234.79,2565.11 1235.31,2564.24 1235.85,2563.39 1236.45,2562.07"/>
        <lane id=":1585528036_1_2" index="2" disallow="pedestrian bicycle tram rail_urban rail rail_electric rail_fast ship" speed="16.67" length="4.91" shape="1237.36,2567.34 1237.85,2566.05 1238.35,2565.23 1238.88,2564.43 1239.45,2563.16"/>
    </edge>
    <edge id=":1585528040_0" function="internal">
        <lane id=":1585528040_0_0" index="0" disallow="tram rail_urban rail rail_electric rail_fast ship" speed="11.11" length="8.08" shape="1291.74,2508.28 1289.54,2507.32 1288.03,2506.62 1286.46,2506.15 1284.11,2505.90"/>
    </edge>
    <edge id=":1585528040_1" function="internal">
        <lane id=":1585528040_1_0" index="0" disallow="tram rail_urban rail rail_electric rail_fast ship" speed="11.11" length="8.53" shape="1292.51,2504.72 1290.03,2504.34 1288.39,2503.71 1286.75,2503.08 1284.27,2502.70"/>
        <lane id=":1585528040_1_1" index="1" disallow="tram rail_urban rail rail_electric rail_fast ship" speed="11.11" length="8.53" shape="1292.67,2501.52 1290.19,2501.15 1288.55,2500.51 1286.91,2499.88 1284.43,2499.50"/>
    </edge>
    <edge id=":1585528044_0" function="internal">
        <lane id=":1585528044_0_0" index="0" disallow="pedestrian bicycle tram rail_urban rail rail_electric rail_fast ship" speed="13.89" length="16.81" shape="1198.06,2504.58 1192.73,2505.36 1188.77,2506.71 1185.49,2508.28 1182.19,2509.72"/>
    </edge>
    <edge id=":1585528044_1" function="internal">
        <lane id=":1585528044_1_0" index="0" disallow="tram rail_urban rail rail_electric rail_fast ship" speed="16.67" length="17.51" shape="1197.87,2501.38 1192.85,2502.20 1189.57,2503.58 1186.31,2505.10 1181.34,2506.35"/>
        <lane id=":1585528044_1_1" index="1" disallow="tram rail_urban rail rail_electric rail_fast ship" speed="16.67" length="17.51" shape="1197.67,2498.19 1192.57,2499.01 1189.24,2500.39 1185.92,2501.93 1180.86,2503.19"/>
    </edge>
    <edge id=":1585528045_0" function="internal">
        <lane id=":1585528045_0_0" index="0" disallow="tram rail_urban rail rail_electric rail_fast ship" speed="13.89" length="0.28" shape="1240.89,2503.68 1240.67,2503.67"/>
        <lane id=":1585528045_0_1" index="1" disallow="tram rail_urban rail rail_electric rail_fast ship" speed="13.89" length="0.28" shape="1241.06,2500.49 1240.77,2500.47"/>
        <lane id=":1585528045_0_2" index="2" disallow="tram rail_urban rail rail_electric rail_fast ship" speed="13.89" length="0.28" shape="1241.22,2497.29 1240.88,2497.28"/>
    </edge>
    <edge id=":1585528050_0" function="internal">
        <lane id=":1585528050_0_0" index="0" disallow="tram rail_urban rail rail_electric rail_fast ship" speed="8.33" length="9.90" shape="1339.76,2484.78 1342.32,2484.01 1343.76,2482.67 1345.15,2481.11 1347.55,2479.69"/>
        <lane id=":1585528050_0_1" index="1" disallow="tram rail_urban rail rail_electric rail_fast ship" speed="8.33" length="9.90" shape="1340.09,2487.96 1342.88,2487.17 1344.49,2485.79 1346.05,2484.18 1348.67,2482.69"/>
    </edge>
    <edge id=":1585528051_0" function="internal">
        <lane id=":1585528051_0_0" index="0" disallow="pedestrian bicycle tram rail_urban rail rail_electric rail_fast ship" speed="12.50" length="25.05" shape="1329.84,2425.54 1326.68,2430.98 1324.98,2435.78 1323.60,2441.21 1321.39,2448.53"/>
        <lane id=":1585528051_0_1" index="1" disallow="pedestrian bicycle tram rail_urban rail rail_electric rail_fast ship" speed="12.50" length="25.05" shape="1327.20,2423.72 1324.01,2429.22 1322.21,2434.20 1320.70,2439.87 1318.36,2447.48"/>
    </edge>
    <edge id=":1585528051_2" function="internal">
        <lane id=":1585528051_2_0" index="0" disallow="pedestrian bicycle tram rail_urban rail rail_electric rail_fast ship" speed="16.67" length="26.19" shape="1323.89,2421.46 1315.34,2446.43"/>
        <lane id=":1585528051_2_1" index="1" disallow="pedestrian bicycle tram rail_urban rail rail_electric rail_fast ship" speed="16.67" length="26.19" shape="1320.80,2420.61 1312.31,2445.38"/>
        <lane id=":1585528051_2_2" index="2" disallow="pedestrian bicycle tram rail_urban rail rail_electric rail_fast ship" speed="16.67" length="26.19" shape="1317.71,2419.76 1309.29,2444.34"/>
    </edge>
    <edge id=":1585528053_0" function="internal">
        <lane id=":1585528053_0_0" index="0" disallow="tram rail_urban rail rail_electric rail_fast ship" speed="8.33" length="13.13" shape="1372.22,2419.41 1370.97,2417.33 1368.80,2415.46 1365.68,2413.80 1361.63,2412.35"/>
    </edge>
    <edge id=":1585528053_1" function="internal">
        <lane id=":1585528053_1_0" index="0" disallow="tram rail_urban rail rail_electric rail_fast ship" speed="8.33" length="15.32" shape="1375.23,2418.35 1373.71,2415.58 1371.22,2413.18 1367.77,2411.17 1363.36,2409.53"/>
    </edge>
    <edge id=":1585528053_2" function="internal">
        <lane id=":1585528053_2_0" index="0" allow="pedestrian delivery bicycle" speed="6.95" length="14.66" shape="1375.23,2418.35 1373.27,2414.51 1371.10,2412.33 1368.81,2410.20 1366.48,2406.51"/>
        <lane id=":1585528053_2_1" index="1" allow="pedestrian delivery bicycle" speed="6.95" length="14.66" shape="1375.23,2418.35 1373.73,2414.33 1372.55,2411.65 1371.24,2409.02 1369.38,2405.16"/>
    </edge>
    <edge id=":1586861670_0" function="internal">
        <lane id=":1586861670_0_0" index="0" disallow="tram rail_urban rail rail_electric rail_fast ship" speed="15.46" length="7.97" shape="1204.55,2596.66 1203.09,2595.08 1201.93,2594.15 1200.60,2593.46 1198.62,2592.57"/>
        <lane id=":1586861670_0_1" index="1" disallow="tram rail_urban rail rail_electric rail_fast ship" speed="16.67" length="7.97" shape="1204.55,2596.66 1203.21,2594.47 1202.65,2592.62 1201.89,2591.04 1199.95,2589.66"/>
    </edge>
    <edge id=":1586861692_0" function="internal">
        <lane id=":1586861692_0_0" index="0" disallow="tram rail_urban rail rail_electric rail_fast ship" speed="12.50" length="12.01" shape="1204.03,2480.51 1207.57,2480.21 1209.96,2479.55 1212.34,2478.92 1215.88,2478.70"/>
        <lane id=":1586861692_0_1" index="1" disallow="tram rail_urban rail rail_electric rail_fast ship" speed="12.50" length="12.01" shape="1204.02,2483.71 1207.53,2483.41 1209.91,2482.75 1212.28,2482.12 1215.80,2481.90"/>
    </edge>
    <edge id=":1586861692_2" function="internal">
        <lane id=":1586861692_2_0" index="0" disallow="tram rail_urban rail rail_electric rail_fast ship" speed="9.72" length="11.58" shape="1204.40,2487.20 1207.41,2486.39 1209.73,2485.68 1212.21,2485.21 1215.72,2485.09"/>
    </edge>
    <edge id=":2281116104_0" function="internal">
        <lane id=":2281116104_0_0" index="0" disallow="pedestrian bicycle tram rail_urban rail rail_electric rail_fast ship" speed="15.19" length="13.98" shape="1213.80,2618.21 1214.68,2614.36 1214.20,2611.61 1212.97,2608.82 1211.59,2604.86"/>
    </edge>
    <edge id=":2281116104_1" function="internal">
        <lane id=":2281116104_1_0" index="0" disallow="pedestrian bicycle tram rail_urban rail rail_electric rail_fast ship" speed="15.49" length="14.55" shape="1213.80,2618.21 1215.22,2614.16 1215.82,2611.22 1215.63,2608.24 1214.69,2604.07"/>
    </edge>
    <edge id=":2281116104_2" function="internal">
        <lane id=":2281116104_2_0" index="0" disallow="pedestrian bicycle tram rail_urban rail rail_electric rail_fast ship" speed="16.67" length="14.88" shape="1213.80,2618.21 1218.61,2604.22"/>
        <lane id=":2281116104_2_1" index="1" disallow="pedestrian bicycle tram rail_urban rail rail_electric rail_fast ship" speed="16.67" length="14.88" shape="1216.81,2619.31 1221.64,2605.24"/>
        <lane id=":2281116104_2_2" index="2" disallow="pedestrian bicycle tram rail_urban rail rail_electric rail_fast ship" speed="16.67" length="14.88" shape="1219.81,2620.42 1224.67,2606.27"/>
    </edge>
    <edge id=":2285773778_0" function="internal">
        <lane id=":2285773778_0_0" index="0" disallow="tram rail_urban rail rail_electric rail_fast ship" speed="7.89" length="9.03" shape="1235.41,2850.79 1234.72,2848.55 1233.52,2846.76 1231.83,2845.42 1229.64,2844.52"/>
    </edge>
    <edge id=":2285773778_1" function="internal">
        <lane id=":2285773778_1_0" index="0" disallow="tram rail_urban rail rail_electric rail_fast ship" speed="22.22" length="13.53" shape="1235.41,2850.79 1234.75,2846.69 1234.58,2843.83 1234.85,2840.96 1235.49,2836.84"/>
        <lane id=":2285773778_1_1" index="1" disallow="tram rail_urban rail rail_electric rail_fast ship" speed="22.22" length="13.53" shape="1238.56,2850.21 1237.95,2846.42 1237.80,2843.79 1238.06,2841.14 1238.66,2837.34"/>
    </edge>
    <edge id=":2285773778_3" function="internal">
        <lane id=":2285773778_3_0" index="0" disallow="tram rail_urban rail rail_electric rail_fast ship" speed="5.91" length="7.89" shape="1230.49,2841.43 1232.34,2841.57 1233.80,2840.86 1234.85,2839.28 1235.49,2836.84"/>
    </edge>
    <edge id=":2285773778_4" function="internal">
        <lane id=":2285773778_4_0" index="0" disallow="tram rail_urban rail rail_electric rail_fast ship" speed="3.65" length="4.67" shape="1230.49,2841.43 1231.43,2842.53 1231.61,2843.40 1231.01,2844.07 1229.64,2844.52"/>
    </edge>
    <edge id=":2388133683_0" function="internal">
        <lane id=":2388133683_0_0" index="0" allow="pedestrian delivery bicycle" speed="5.56" length="22.20" shape="1317.51,2409.30 1315.34,2412.88 1312.65,2417.18 1309.78,2422.43 1307.08,2428.85"/>
    </edge>
    <edge id=":2388133683_1" function="internal">
        <lane id=":2388133683_1_0" index="0" allow="pedestrian delivery bicycle" speed="5.56" length="22.80" shape="1314.68,2407.35 1307.08,2428.85"/>
        <lane id=":2388133683_1_1" index="1" allow="pedestrian delivery bicycle" speed="5.56" length="22.80" shape="1311.67,2406.28 1304.07,2427.78"/>
    </edge>
    <edge id=":2652118772_0" function="internal">
        <lane id=":2652118772_0_0" index="0" disallow="tram rail_urban rail rail_electric rail_fast ship" speed="10.20" length="8.95" shape="1386.75,2401.17 1386.06,2403.58 1386.29,2405.35 1387.12,2407.14 1388.20,2409.60"/>
    </edge>
    <edge id=":2652118772_1" function="internal">
        <lane id=":2652118772_1_0" index="0" disallow="tram rail_urban rail rail_electric rail_fast ship" speed="19.45" length="6.23" shape="1380.32,2406.38 1381.37,2407.92 1382.73,2408.54 1384.11,2409.16 1385.19,2410.69"/>
        <lane id=":2652118772_1_1" index="1" disallow="tram rail_urban rail rail_electric rail_fast ship" speed="19.45" length="6.23" shape="1380.32,2406.38 1382.18,2411.78"/>
    </edge>
    <edge id=":27564555_0" function="internal">
        <lane id=":27564555_0_0" index="0" disallow="pedestrian bicycle tram rail_urban rail rail_electric rail_fast ship" speed="6.54" length="9.04" shape="1137.83,2809.00 1140.26,2809.49 1142.27,2809.09 1143.86,2807.80 1145.03,2805.63"/>
    </edge>
    <edge id=":27564555_1" function="internal">
        <lane id=":27564555_1_0" index="0" disallow="tram rail_urban rail rail_electric rail_fast ship" speed="3.65" length="2.56" shape="1137.83,2809.00 1138.70,2810.15 1138.81,2811.04 1138.65,2811.20"/>
    </edge>
    <edge id=":27564555_6" function="internal">
        <lane id=":27564555_6_0" index="0" disallow="tram rail_urban rail rail_electric rail_fast ship" speed="3.65" length="2.12" shape="1138.65,2811.20 1138.17,2811.66 1136.77,2812.02"/>
    </edge>
    <edge id=":27564555_2" function="internal">
        <lane id=":27564555_2_0" index="0" disallow="pedestrian bicycle tram rail_urban rail rail_electric rail_fast ship" speed="6.51" length="9.01" shape="1140.21,2819.14 1140.68,2816.72 1140.27,2814.73 1138.96,2813.16 1136.77,2812.02"/>
    </edge>
    <edge id=":27564555_3" function="internal">
        <lane id=":27564555_3_0" index="0" disallow="pedestrian bicycle tram rail_urban rail rail_electric rail_fast ship" speed="16.67" length="14.30" shape="1140.21,2819.14 1145.03,2805.63"/>
        <lane id=":27564555_3_1" index="1" disallow="pedestrian bicycle tram rail_urban rail rail_electric rail_fast ship" speed="16.67" length="14.30" shape="1143.23,2820.20 1148.04,2806.73"/>
        <lane id=":27564555_3_2" index="2" disallow="pedestrian bicycle tram rail_urban rail rail_electric rail_fast ship" speed="16.67" length="14.30" shape="1146.25,2821.25 1151.04,2807.83"/>
    </edge>
    <edge id=":27591030_0" function="internal">
        <lane id=":27591030_0_0" index="0" disallow="tram rail_urban rail rail_electric rail_fast ship" speed="22.22" length="3.82" shape="1339.40,2574.21 1338.09,2577.80"/>
    </edge>
    <edge id=":27591030_1" function="internal">
        <lane id=":27591030_1_0" index="0" disallow="tram rail_urban rail rail_electric rail_fast ship" speed="12.40" length="3.61" shape="1335.79,2573.09 1335.79,2574.16 1335.71,2574.89 1335.51,2575.60 1335.12,2576.60"/>
    </edge>
    <edge id=":27797308_0" function="internal">
        <lane id=":27797308_0_0" index="0" disallow="tram rail_urban rail rail_electric rail_fast ship" speed="3.65" length="4.67" shape="961.47,2322.06 961.01,2320.69 961.19,2319.81 962.00,2319.43 963.44,2319.53"/>
    </edge>
    <edge id=":28379118_0" function="internal">
        <lane id=":28379118_0_0" index="0" disallow="tram rail_urban rail rail_electric rail_fast ship" speed="13.89" length="9.42" shape="1101.10,2628.59 1109.98,2631.74"/>
    </edge>
    <edge id=":28379118_1" function="internal">
        <lane id=":28379118_1_0" index="0" disallow="tram rail_urban rail rail_electric rail_fast ship" speed="6.08" length="7.77" shape="1101.10,2628.59 1103.64,2629.68 1105.31,2630.89 1106.10,2632.20 1106.02,2633.62"/>
    </edge>
    <edge id=":28379118_2" function="internal">
        <lane id=":28379118_2_0" index="0" disallow="tram rail_urban rail rail_electric rail_fast ship" speed="6.07" length="1.11" shape="1103.00,2632.56 1103.64,2631.66"/>
    </edge>
    <edge id=":28379118_3" function="internal">
        <lane id=":28379118_3_0" index="0" disallow="tram rail_urban rail rail_electric rail_fast ship" speed="3.65" length="1.16" shape="1103.00,2632.56 1103.93,2631.86"/>
    </edge>
    <edge id=":28379118_4" function="internal">